%mem=10GB 
%nprocshared=8 
# opt=modredundant b3lyp/6-311+g(d,p) 

 pg2T_TT_-90.pdb

0  1
C          -4.25000        -1.36000        -0.21000
C          -2.93000        -0.95000        -0.61000
C          -1.97000        -2.05000        -0.62000
C          -4.33000        -2.76000         0.10000
S          -2.80000        -3.56000        -0.11000
H          -5.23000        -3.27000         0.41000
C          -0.56000        -2.13000        -0.97000
S          -0.01600        -2.49600        -2.63600
C           1.65600        -2.39800        -2.20100
C           1.84300        -2.06300        -0.81200
C           0.60400        -1.89300        -0.11300
H           0.54300        -1.48500         0.88300
S           3.35800        -1.27700        -0.51300
C           3.79500        -1.38300        -2.22000
C           2.75800        -2.00000        -3.01400
H           4.65300        -0.87000        -2.63000
H           2.71500        -1.91000        -4.09600
H          -2.89000         0.24000        -0.97000
O          -5.60000        -0.36000        -0.40000
H          -5.76000         0.85000        -0.75000

D 2 3 7 8 F

