%mem=10GB 
%nprocshared=8 
# opt=modredundant wb97xd/6-311+g(d,p) 

 NDI_50.pdb

0  1
C          -2.56300        -2.99400        -0.40900
C          -2.25700        -1.55100        -0.22400
C          -3.30100        -0.60700        -0.08300
C          -4.65000        -1.02400        -0.11500
C          -4.99200        -2.45900        -0.30400
C          -0.94900        -1.13700        -0.21500
C          -2.96200         0.76400         0.10200
C          -1.59500         1.18800         0.12300
C          -0.56100         0.23200        -0.07200
C          -1.32800         2.61600         0.44600
C          -3.77700         3.11500         0.50800
C          -4.03500         1.67900         0.26800
C          -5.35600         1.25200         0.23000
C          -5.67200        -0.09800         0.03600
H          -6.69900        -0.44200         0.00800
H          -6.13300         1.99700         0.36100
H          -0.19000        -1.89500        -0.36900
N          -2.43200         3.47600         0.60800
N          -3.91600        -3.35300        -0.43800
O          -1.69500        -3.84700        -0.53200
O          -6.14900        -2.85000        -0.34000
O          -4.67600         3.93800         0.62900
O          -0.21200         3.09700         0.59600
C          -2.11100         4.87500         0.91200
H          -1.54000         4.93100         1.84000
H          -1.50000         5.29900         0.11100
H          -3.05000         5.41400         1.00300
C          -4.20600        -4.77900        -0.62500
H          -3.75900        -5.12600        -1.55900
H          -3.77500        -5.35500         0.19600
H          -5.28600        -4.89700        -0.64900
C           0.87600         0.48200        -0.17800
C           1.72900         1.21200         0.62800
S           1.73200        -0.07600        -1.61600
C           3.03600         1.31800         0.11300
H           1.41800         1.64700         1.56400
C           3.23200         0.66500        -1.10700
O           4.07900         1.97700         0.68500
C           4.45000         0.55500        -1.85800
C           3.88400         2.50800         1.99300
C           4.63900        -0.07700        -3.08600
S           5.98000         1.23900        -1.31300
H           4.84700         2.91700         2.29700
H           3.13400         3.30900         1.98800
H           3.57500         1.72600         2.69600
C           5.97400        -0.01400        -3.57500
O           3.58200        -0.68000        -3.69100
C           6.80000         0.66600        -2.72100
H           6.30500        -0.44700        -4.50900
C           3.79800        -1.28600        -4.96100
H           7.85600         0.86300        -2.84500
H           4.52900        -2.10100        -4.89400
H           2.83400        -1.69000        -5.26900
H           4.13800        -0.55100        -5.70000

D 8 9 32 33 F

