%mem=10GB 
%nprocshared=8 
# opt=modredundant wb97xd/6-311+g(d,p) 

 NDI_5.pdb

0  1
C          -2.56300        -2.99400        -0.40900
C          -2.25700        -1.55100        -0.22400
C          -3.30100        -0.60700        -0.08300
C          -4.65000        -1.02400        -0.11500
C          -4.99200        -2.45900        -0.30400
C          -0.94900        -1.13700        -0.21500
C          -2.96200         0.76400         0.10200
C          -1.59500         1.18800         0.12300
C          -0.56100         0.23200        -0.07200
C          -1.32800         2.61600         0.44600
C          -3.77700         3.11500         0.50800
C          -4.03500         1.67900         0.26800
C          -5.35600         1.25200         0.23000
C          -5.67200        -0.09800         0.03600
H          -6.69900        -0.44200         0.00800
H          -6.13300         1.99700         0.36100
H          -0.19000        -1.89500        -0.36900
N          -2.43200         3.47600         0.60800
N          -3.91600        -3.35300        -0.43800
O          -1.69500        -3.84700        -0.53200
O          -6.14900        -2.85000        -0.34000
O          -4.67600         3.93800         0.62900
O          -0.21200         3.09700         0.59600
C          -2.11100         4.87500         0.91200
H          -1.54000         4.93100         1.84000
H          -1.50000         5.29900         0.11100
H          -3.05000         5.41400         1.00300
C          -4.20600        -4.77900        -0.62500
H          -3.75900        -5.12600        -1.55900
H          -3.77500        -5.35500         0.19600
H          -5.28600        -4.89700        -0.64900
C           0.87600         0.48200        -0.17800
C           1.60400         1.64700        -0.03100
S           1.92800        -0.82500        -0.72100
C           2.97100         1.49900        -0.34000
H           1.16300         2.57400         0.29700
C           3.33900         0.20700        -0.72900
O           3.92100         2.47000        -0.29000
C           4.65200        -0.26800        -1.06200
C           3.54200         3.73500         0.24600
C           5.01400        -1.55000        -1.47200
S           6.08800         0.75100        -1.00100
H           4.45100         4.33400         0.27200
H           2.79900         4.22900        -0.39200
H           3.13800         3.63000         1.26000
C           6.40600        -1.70900        -1.72900
O           4.05500        -2.50600        -1.58600
C           7.10000        -0.54900        -1.51600
H           6.86600        -2.63100        -2.05600
C           4.45000        -3.79600        -2.04000
H           8.16300        -0.38700        -1.63600
H           5.16600        -4.25900        -1.35000
H           3.54000        -4.39500        -2.07200
H           4.89000        -3.74700        -3.04300

D 8 9 32 33 F

