%mem=100GB 
%nprocshared=16 
# opt=modredundant mp2/aug-cc-pvdz 

 pBTTT_-110.pdb

0  1
C           3.96700         0.68800         0.16200
C           2.57600         0.97700         0.42200
C           1.75900         0.01900        -0.08200
C           2.14200         2.20100         1.18300
C           4.15800        -0.46500        -0.51000
H           4.77300         1.33000         0.48400
S           2.66500        -1.25200        -0.86900
H           5.09400        -0.90000        -0.81700
C           0.28600        -0.04200        -0.03100
S          -0.52500        -1.23800         0.97300
C          -2.07800        -0.64000         0.47800
C          -1.94800         0.40500        -0.39000
C          -0.58900         0.74900        -0.69000
H          -0.28300         1.53200        -1.36400
S          -3.50200         1.00300        -0.88700
C          -4.29800        -0.19000         0.10500
C          -3.43900        -0.99000         0.77000
H          -5.37400        -0.22400         0.13500
H          -3.74600        -1.78500         1.43000
H           2.68100         2.26800         2.12900
H           1.07700         2.18200         1.39500
H           2.36200         3.10600         0.61500

D 2 3 9 10 F

