%mem=100GB 
%nprocshared=16 
# opt=modredundant mp2/aug-cc-pvdz 

 pBTTT_30.pdb

0  1
C           4.03500         0.26400         0.15300
C           2.70800         0.81500         0.27300
C           1.74900        -0.12100         0.03800
C           2.49600         2.26200         0.64500
C           4.05500        -1.04400        -0.16800
H           4.92800         0.84800         0.31800
S           2.46000        -1.67100        -0.35700
H           4.91300        -1.68000        -0.30300
C           0.28300        -0.01000         0.01900
S          -0.53000         1.48200        -0.44200
C          -2.08500         0.74100        -0.23200
C          -1.95800        -0.55900         0.16000
C          -0.60400        -0.99500         0.31000
H          -0.31000        -1.98200         0.62600
S          -3.51300        -1.30100         0.38000
C          -4.30600         0.18700        -0.06900
C          -3.44400         1.18200        -0.36500
H          -5.38200         0.23100        -0.08700
H          -3.74800         2.17200        -0.66400
H           3.35500         2.62700         1.20700
H           1.61000         2.39700         1.26000
H           2.39100         2.88900        -0.24200

D 2 3 9 10 F

