%mem=100GB 
%nprocshared=16 
# opt=modredundant mp2/aug-cc-pvdz 

 pBTTT_-80.pdb

0  1
C           3.99400         0.36500        -0.44200
C           2.62100         0.77900        -0.60300
C           1.75800        -0.10300        -0.04100
C           2.23900         2.04300        -1.32700
C           4.12800        -0.79700         0.22700
H           4.83000         0.93100        -0.82500
S           2.59900        -1.44500         0.69600
H           5.04000        -1.31500         0.47000
C           0.28400        -0.03900         0.01000
S          -0.52100         0.97600         1.20100
C          -2.07700         0.48000         0.61300
C          -1.95200        -0.40800        -0.41600
C          -0.59500        -0.71200        -0.76400
H          -0.29200        -1.38800        -1.54700
S          -3.50800        -0.90600        -1.00700
C          -4.29900         0.11300         0.16700
C          -3.43700         0.78700         0.95600
H          -5.37500         0.14800         0.20100
H          -3.74100         1.46300         1.73800
H           2.64800         2.03900        -2.33800
H           2.64100         2.91600        -0.81200
H           1.16100         2.15300        -1.39500

D 2 3 9 10 F

