%mem=100GB 
%nprocshared=16 
# opt=modredundant mp2/aug-cc-pvdz 

 pBTTT_-75.pdb

0  1
C           3.99900         0.34100        -0.42400
C           2.63100         0.76400        -0.59900
C           1.75700        -0.10700        -0.03700
C           2.26600         2.02300        -1.34000
C           4.12000        -0.81800         0.25400
H           4.84200         0.89800        -0.80500
S           2.58200        -1.45100         0.71600
H           5.02600        -1.34100         0.50600
C           0.28400        -0.03600         0.00700
S          -0.52000         1.08800         1.09600
C          -2.07700         0.53700         0.56000
C          -1.95300        -0.44600        -0.37800
C          -0.59600        -0.78100        -0.69800
H          -0.29400        -1.52800        -1.41400
S          -3.51000        -0.99800        -0.91700
C          -4.30000         0.13000         0.15300
C          -3.43700         0.87700         0.87200
H          -5.37500         0.16900         0.18400
H          -3.73900         1.62600         1.58500
H           2.71000         2.01700        -2.33700
H           2.64400         2.90100        -0.81500
H           1.19000         2.12600        -1.44600

D 2 3 9 10 F

