%mem=100GB 
%nprocshared=16 
# opt=modredundant mp2/aug-cc-pvdz 

 pBTTT_125.pdb

0  1
C          -3.96100         0.72700         0.12600
C          -2.57000         1.03000         0.36300
C          -1.75700         0.02600        -0.05400
C          -2.13600         2.31300         1.02100
C          -4.16000        -0.47800        -0.44300
H          -4.76400         1.39800         0.39300
S          -2.67100        -1.30200        -0.73200
H          -5.09800        -0.93500        -0.70900
C          -0.28800        -0.03800        -0.01200
S           0.52700        -1.38000         0.78300
C           2.07900        -0.71400         0.38000
C           1.94700         0.45700        -0.30700
C           0.58800         0.84700        -0.54200
H           0.28300         1.72300        -1.09000
S           3.49900         1.12400        -0.71300
C           4.29800        -0.21500         0.06900
C           3.44000        -1.11100         0.60100
H           5.37400        -0.25600         0.08500
H           3.74900        -2.00200         1.12200
H          -2.76000         2.51800         1.89100
H          -2.24100         3.15600         0.33600
H          -1.10100         2.26500         1.34600

D 2 3 9 10 F

