%mem=100GB 
%nprocshared=16 
# opt=modredundant mp2/aug-cc-pvdz 

 pBTTT_45.pdb

0  1
C           4.02700         0.28300         0.23600
C           2.68800         0.79700         0.39600
C           1.75000        -0.12000         0.04100
C           2.43800         2.18300         0.93300
C           4.07000        -0.98200        -0.22600
H           4.90800         0.85700         0.48000
S           2.48800        -1.60800        -0.50800
H           4.94100        -1.58600        -0.41600
C           0.28300        -0.01900         0.01600
S          -0.52400         1.39400        -0.65600
C          -2.08100         0.69700        -0.33700
C          -1.95700        -0.53700         0.23100
C          -0.60300        -0.95200         0.43900
H          -0.30700        -1.88700         0.88800
S          -3.51500        -1.23500         0.55600
C          -4.30400         0.17800        -0.09500
C          -3.43900         1.11900        -0.52900
H          -5.37900         0.22300        -0.11800
H          -3.74100         2.05800        -0.96200
H           3.15100         2.40700         1.72700
H           1.43600         2.28500         1.34000
H           2.56600         2.93600         0.15300

D 2 3 9 10 F

