%mem=100GB 
%nprocshared=16 
# opt=modredundant mp2/aug-cc-pvdz 

 pBTTT_-15.pdb

0  1
C          -4.04100         0.25700         0.07700
C          -2.71900         0.82900         0.13900
C          -1.74900        -0.12100         0.02300
C          -2.52500         2.31400         0.32700
C          -4.05000        -1.07900        -0.08900
H          -4.93800         0.85100         0.16100
S          -2.45000        -1.71200        -0.18700
H          -4.90300        -1.73300        -0.15800
C          -0.28400        -0.00600         0.01400
S           0.53800         1.53700        -0.22000
C           2.09000         0.76800        -0.11900
C           1.95800        -0.57300         0.08200
C           0.60300        -1.02200         0.16200
H           0.31400        -2.04700         0.32900
S           3.51100        -1.34400         0.19400
C           4.30900         0.19100        -0.03700
C           3.44900         1.22000        -0.18800
H           5.38400         0.23500        -0.04800
H           3.75600         2.24200        -0.34200
H          -3.47000         2.77600         0.60600
H          -2.18200         2.79200        -0.59100
H          -1.80200         2.53200         1.11000

D 2 3 9 10 F

