%mem=100GB 
%nprocshared=16 
# opt=modredundant mp2/aug-cc-pvdz 

 pBTTT_-165.pdb

0  1
C           3.96300         0.77200        -0.01300
C           2.57600         1.13000         0.13000
C           1.75600         0.04600         0.03000
C           2.15800         2.55400         0.39300
C           4.16500        -0.54500        -0.22000
H           4.76300         1.49300         0.05000
S           2.67800        -1.41200        -0.26200
H           5.10200        -1.06000        -0.34800
C           0.28800        -0.01500         0.05700
S          -0.52400        -1.56200         0.30400
C          -2.08000        -0.81500         0.13200
C          -1.95600         0.52300        -0.09500
C          -0.60400         0.98800        -0.15000
H          -0.33000         2.00400        -0.36300
S          -3.51300         1.27500        -0.26500
C          -4.30200        -0.26200        -0.01900
C          -3.43700        -1.27900         0.17900
H          -5.37700        -0.31700        -0.03700
H          -3.73800        -2.30000         0.34800
H           3.00300         3.12600         0.77200
H           1.35900         2.60500         1.13000
H           1.81300         3.04500        -0.51900

D 2 3 9 10 F

