%mem=100GB 
%nprocshared=16 
# opt=modredundant mp2/aug-cc-pvdz 

 pBTTT_85.pdb

0  1
C           3.98900         0.42400         0.42600
C           2.61100         0.84000         0.54200
C           1.75900        -0.09300         0.05300
C           2.21600         2.16100         1.14600
C           4.13500        -0.79000        -0.14000
H           4.81800         1.02800         0.76300
S           2.61400        -1.48800        -0.56100
H           5.05300        -1.32000        -0.33400
C           0.28400        -0.04200        -0.01000
S          -0.52200         0.75100        -1.35700
C          -2.07800         0.36400        -0.69000
C          -1.95100        -0.33000         0.47700
C          -0.59400        -0.56900         0.87200
H          -0.28900        -1.09900         1.75900
S          -3.50700        -0.71700         1.14700
C          -4.29900         0.08000        -0.18600
C          -3.43800         0.60600        -1.08200
H          -5.37500         0.10900        -0.22500
H          -3.74200         1.13400        -1.97000
H           2.63900         2.98600         0.57100
H           2.59300         2.24100         2.16600
H           1.13600         2.28000         1.17000

D 2 3 9 10 F

