%mem=100GB 
%nprocshared=16 
# opt=modredundant mp2/aug-cc-pvdz 

 pBTTT_-25.pdb

0  1
C          -4.03800         0.26000         0.12700
C          -2.71300         0.82000         0.23000
C          -1.74900        -0.12100         0.03400
C          -2.50900         2.28300         0.54200
C          -4.05200        -1.05900        -0.14400
H          -4.93200         0.84800         0.26500
S          -2.45500        -1.68700        -0.30300
H          -4.90800        -1.70200        -0.25800
C          -0.28400        -0.00800         0.01900
S           0.53300         1.50400        -0.36800
C           2.08700         0.75200        -0.19500
C           1.95800        -0.56500         0.13500
C           0.60300        -1.00600         0.26300
H           0.31200        -2.00700         0.53200
S           3.51300        -1.31800         0.31900
C           4.30700         0.18900        -0.05900
C           3.44600         1.19700        -0.30800
H           5.38300         0.23300        -0.07600
H           3.75100         2.20000        -0.56000
H          -3.40400         2.68700         1.01000
H          -2.32100         2.86100        -0.36400
H          -1.67400         2.44000         1.22000

D 2 3 9 10 F

