%mem=100GB 
%nprocshared=16 
# opt=modredundant mp2/aug-cc-pvdz 

 pBTTT_-115.pdb

0  1
C           3.96400         0.70200         0.15500
C           2.57300         0.99500         0.40700
C           1.75800         0.02200        -0.07400
C           2.13800         2.23600         1.13800
C           4.15900        -0.46600        -0.48700
H           4.76800         1.35400         0.46200
S           2.66900        -1.26600        -0.82800
H           5.09700        -0.90800        -0.78100
C           0.28700        -0.04100        -0.02700
S          -0.52500        -1.29400         0.90400
C          -2.07800        -0.66900         0.44300
C          -1.94800         0.42500        -0.36100
C          -0.58900         0.78700        -0.63900
H          -0.28300         1.60700        -1.26800
S          -3.50100         1.05100        -0.82500
C          -4.29800        -0.20000         0.09300
C          -3.44000        -1.03800         0.71000
H          -5.37400        -0.23600         0.11900
H          -3.74700        -1.87100         1.32100
H           2.70200         2.34500         2.06500
H           1.08000         2.20500         1.38300
H           2.32300         3.12600         0.53300

D 2 3 9 10 F

