%mem=100GB 
%nprocshared=16 
# opt=modredundant mp2/aug-cc-pvdz 

 pBTTT_-100.pdb

0  1
C           3.97400         0.65700         0.14300
C           2.58700         0.95600         0.41100
C           1.76000         0.00900        -0.09400
C           2.16200         2.18100         1.17500
C           4.15200        -0.49200        -0.53800
H           4.78700         1.29200         0.46300
S           2.65000        -1.26500        -0.89400
H           5.08200        -0.93200        -0.85500
C           0.28600        -0.04100        -0.03200
S          -0.52400        -1.05300         1.15800
C          -2.07800        -0.54600         0.57300
C          -1.94900         0.33700        -0.46000
C          -0.59000         0.62700        -0.81400
H          -0.28400         1.29000        -1.60700
S          -3.50300         0.84600        -1.04700
C          -4.29900        -0.16100         0.13400
C          -3.43900        -0.84000         0.92300
H          -5.37400        -0.18800         0.17100
H          -3.74500        -1.51100         1.70800
H           2.65200         2.21100         2.14800
H           1.08700         2.20000         1.33100
H           2.44500         3.08700         0.63500

D 2 3 9 10 F

