%mem=100GB 
%nprocshared=16 
# opt=modredundant mp2/aug-cc-pvdz 

 pBTTT_65.pdb

0  1
C           4.01000         0.31700         0.36300
C           2.65100         0.76900         0.54400
C           1.75500        -0.11400         0.03600
C           2.32500         2.06100         1.24600
C           4.10200        -0.87300        -0.26300
H           4.86700         0.87600         0.70700
S           2.54800        -1.50000        -0.67300
H           4.99700        -1.42100        -0.50500
C           0.28300        -0.03000         0.00300
S          -0.51900         1.22300        -0.93600
C          -2.07800         0.60800        -0.47800
C          -1.95500        -0.48900         0.32300
C          -0.59900        -0.86100         0.60200
H          -0.30000        -1.69300         1.21900
S          -3.51300        -1.10600         0.78400
C          -4.30100         0.15200        -0.13100
C          -3.43600         0.98600        -0.74600
H          -5.37600         0.19500        -0.15900
H          -3.73800         1.82200        -1.35600
H           2.84700         2.11100         2.20200
H           1.26000         2.15700         1.43300
H           2.64600         2.91600         0.64900

D 2 3 9 10 F

