%mem=100GB 
%nprocshared=16 
# opt=modredundant mp2/aug-cc-pvdz 

 pBTTT_135.pdb

0  1
C          -3.96000         0.74500         0.08900
C          -2.57100         1.06100         0.31300
C          -1.75600         0.02800        -0.02900
C          -2.14100         2.38500         0.88900
C          -4.15900        -0.49500        -0.40100
H          -4.76300         1.43300         0.30700
S          -2.67100        -1.33700        -0.62800
H          -5.09600        -0.96800        -0.63900
C          -0.28800        -0.03200         0.01000
S           0.52900        -1.44400         0.67300
C           2.08000        -0.74800         0.32100
C           1.94600         0.48100        -0.25500
C           0.58800         0.89400        -0.44600
H           0.28500         1.81300        -0.91800
S           3.49800         1.17900        -0.60800
C           4.29800        -0.22800         0.04200
C           3.44100        -1.16600         0.49700
H           5.37400        -0.27300         0.04700
H           3.75000        -2.10200         0.93200
H          -2.82700         2.68900         1.68000
H          -2.15300         3.16600         0.12600
H          -1.14000         2.33300         1.30600

D 2 3 9 10 F

