%mem=100GB 
%nprocshared=16 
# opt=modredundant mp2/aug-cc-pvdz 

 pBTTT_150.pdb

0  1
C          -3.96000         0.76200         0.02900
C          -2.57400         1.09900         0.22900
C          -1.75600         0.03400         0.00900
C          -2.15100         2.47800         0.66700
C          -4.15800        -0.52100        -0.33200
H          -4.76300         1.47000         0.17000
S          -2.67000        -1.38200        -0.46000
H          -5.09400        -1.01700        -0.52700
C          -0.28900        -0.02300         0.04500
S           0.52900        -1.51400         0.50700
C           2.08100        -0.78600         0.23300
C           1.94800         0.50700        -0.17700
C           0.59200         0.94800        -0.29900
H           0.29800         1.92100        -0.65500
S           3.50100         1.23800        -0.45100
C           4.29900        -0.24500         0.00400
C           3.44100        -1.23000         0.34100
H           5.37500        -0.29400        -0.00800
H           3.74800        -2.21600         0.64900
H          -2.92600         2.92600         1.28900
H          -1.99800         3.13700        -0.19000
H          -1.22900         2.44900         1.24300

D 2 3 9 10 F

