%mem=100GB 
%nprocshared=16 
# opt=modredundant mp2/aug-cc-pvdz 

 pBTTT_-65.pdb

0  1
C          -4.01000         0.31800         0.36400
C          -2.65100         0.76900         0.54400
C          -1.75500        -0.11400         0.03600
C          -2.32400         2.06100         1.24600
C          -4.10300        -0.87200        -0.26200
H          -4.86700         0.87700         0.70800
S          -2.54800        -1.49900        -0.67300
H          -4.99700        -1.42100        -0.50500
C          -0.28300        -0.03000         0.00300
S           0.52000         1.22300        -0.93600
C           2.07800         0.60800        -0.47800
C           1.95500        -0.48900         0.32300
C           0.59900        -0.86200         0.60200
H           0.30000        -1.69300         1.21900
S           3.51200        -1.10600         0.78400
C           4.30100         0.15200        -0.13100
C           3.43600         0.98700        -0.74500
H           5.37600         0.19500        -0.15800
H           3.73800         1.82200        -1.35500
H          -2.84600         2.11000         2.20200
H          -2.64500         2.91700         0.65000
H          -1.25900         2.15700         1.43300

D 2 3 9 10 F

