%mem=100GB 
%nprocshared=16 
# opt=modredundant mp2/aug-cc-pvdz 

 pBTTT_175.pdb

0  1
C          -3.96600         0.77500        -0.00900
C          -2.57600         1.14500         0.04600
C          -1.75600         0.05400         0.01500
C          -2.15700         2.58900         0.14200
C          -4.17300        -0.55500        -0.08300
H          -4.76500         1.50000         0.01100
S          -2.68700        -1.42300        -0.09400
H          -5.11200        -1.07900        -0.13100
C          -0.28700        -0.01100         0.02500
S           0.51900        -1.58000         0.11100
C           2.08000        -0.82700         0.04700
C           1.96300         0.52700        -0.03300
C           0.61400         1.00400        -0.05100
H           0.35300         2.04100        -0.12900
S           3.52500         1.28600        -0.09600
C           4.30500        -0.27200        -0.01000
C           3.43400        -1.30000         0.06200
H           5.38000        -0.33000        -0.01900
H           3.72800        -2.33500         0.12100
H          -3.03100         3.22200         0.28200
H          -1.65200         2.92100        -0.76600
H          -1.48600         2.75500         0.98500

D 2 3 9 10 F

