%mem=100GB 
%nprocshared=16 
# opt=modredundant mp2/aug-cc-pvdz 

 pBTTT_-155.pdb

0  1
C           3.96100         0.76600         0.01100
C           2.57500         1.11000         0.19900
C           1.75600         0.03700         0.01900
C           2.15500         2.50500         0.58500
C           4.15900        -0.53000        -0.30300
H           4.76300         1.47900         0.12500
S           2.67100        -1.39400        -0.40000
H           5.09500        -1.03200        -0.48000
C           0.28900        -0.02000         0.05500
S          -0.52800        -1.53200         0.44700
C          -2.08100        -0.79700         0.20200
C          -1.95000         0.51400        -0.15100
C          -0.59500         0.96300        -0.24900
H          -0.30700         1.95100        -0.56300
S          -3.50400         1.25300        -0.39500
C          -4.30000        -0.25000        -0.00700
C          -3.44000        -1.24700         0.28800
H          -5.37500        -0.30200        -0.02300
H          -3.74600        -2.24700         0.55200
H           2.95500         2.99600         1.13700
H           1.26700         2.49500         1.21400
H           1.94200         3.11500        -0.29500

D 2 3 9 10 F

