%mem=100GB 
%nprocshared=16 
# opt=modredundant mp2/aug-cc-pvdz 

 pBTTT_90.pdb

0  1
C          -3.98300         0.58800        -0.21900
C          -2.60200         1.00300        -0.15000
C          -1.75900        -0.05700        -0.08600
C          -2.19500         2.45200        -0.15100
C          -4.14100        -0.75100        -0.20000
H          -4.80700         1.28400        -0.27900
S          -2.62700        -1.57300        -0.10100
H          -5.06400        -1.30500        -0.24200
C          -0.28500        -0.04600        -0.00700
S           0.52300        -0.01300         1.55600
C           2.07800        -0.02300         0.78300
C           1.95100        -0.05400        -0.57400
C           0.59200        -0.07100        -1.03400
H           0.28700        -0.10000        -2.06700
S           3.50500        -0.06400        -1.35000
C           4.29900        -0.02500         0.20300
C           3.43800        -0.00600         1.24200
H           5.37500        -0.01900         0.25000
H           3.74300         0.01800         2.27500
H          -2.64000         2.97400         0.69700
H          -2.54100         2.94400        -1.06100
H          -1.11600         2.56100        -0.09200

D 2 3 9 10 F

