%mem=100GB 
%nprocshared=16 
# opt=modredundant mp2/aug-cc-pvdz 

 pBTTT_180.pdb

0  1
C          -3.96600         0.77500         0.00000
C          -2.57600         1.14700         0.00000
C          -1.75600         0.05600        -0.00000
C          -2.15600         2.59400         0.00000
C          -4.17500        -0.55600        -0.00000
H          -4.76500         1.50100         0.00000
S          -2.68900        -1.42400        -0.00000
H          -5.11400        -1.08100        -0.00000
C          -0.28700        -0.01100         0.00000
S           0.51800        -1.58200         0.00000
C           2.08000        -0.82900         0.00000
C           1.96400         0.52800        -0.00000
C           0.61600         1.00600        -0.00000
H           0.35700         2.04700        -0.00000
S           3.52700         1.28800        -0.00000
C           4.30600        -0.27400        -0.00000
C           3.43300        -1.30400         0.00000
H           5.38100        -0.33200        -0.00000
H           3.72700        -2.34100         0.00000
H          -3.03500         3.23600         0.00000
H          -1.56600         2.84000        -0.88300
H          -1.56600         2.83900         0.88400

D 2 3 9 10 F

