%mem=100GB 
%nprocshared=16 
# opt=modredundant mp2/aug-cc-pvdz 

 pBTTT_-145.pdb

0  1
C           3.96000         0.75700         0.04900
C           2.57300         1.08700         0.25900
C           1.75600         0.03200        -0.00300
C           2.14800         2.44900         0.74500
C           4.15800        -0.51300        -0.35700
H           4.76300         1.45900         0.21600
S           2.67000        -1.36800        -0.51900
H           5.09400        -1.00100        -0.56800
C           0.28900        -0.02600         0.03400
S          -0.53000        -1.49400         0.56500
C          -2.08100        -0.77500         0.26300
C          -1.94700         0.50000        -0.20400
C          -0.59000         0.93200        -0.34800
H          -0.29200         1.88700        -0.74500
S          -3.49900         1.22100        -0.50600
C          -4.29900        -0.23900         0.01600
C          -3.44100        -1.21000         0.39400
H          -5.37400        -0.28700         0.01000
H          -3.75000        -2.18100         0.74500
H           2.89400         2.85000         1.43000
H           1.19500         2.40700         1.26700
H           2.05200         3.15300        -0.08400

D 2 3 9 10 F

