%mem=100GB 
%nprocshared=16 
# opt=modredundant mp2/aug-cc-pvdz 

 pBTTT_70.pdb

0  1
C           4.00500         0.32800         0.39600
C           2.64100         0.76400         0.57500
C           1.75600        -0.11100         0.03500
C           2.29400         2.03500         1.30400
C           4.11100        -0.84400        -0.26200
H           4.85400         0.88400         0.76100
S           2.56500        -1.47200        -0.70200
H           5.01200        -1.37900        -0.51200
C           0.28300        -0.03300        -0.00200
S          -0.52000         1.16300        -1.01200
C          -2.07800         0.57700        -0.51700
C          -1.95400        -0.47100         0.34900
C          -0.59800        -0.82700         0.64700
H          -0.29700        -1.62100         1.31000
S          -3.51100        -1.05900         0.84700
C          -4.30000         0.14200        -0.14100
C          -3.43600         0.93800        -0.80500
H          -5.37600         0.18300        -0.17000
H          -3.73900         1.73600        -1.46400
H           2.77500         2.05200         2.28300
H           1.22300         2.13400         1.44800
H           2.64600         2.90600         0.74800

D 2 3 9 10 F

