%mem=100GB 
%nprocshared=16 
# opt=modredundant mp2/aug-cc-pvdz 

 pBTTT_-120.pdb

0  1
C           3.96200         0.71600         0.14200
C           2.57100         1.01300         0.38600
C           1.75800         0.02400        -0.06500
C           2.13600         2.27500         1.08200
C           4.16000        -0.47100        -0.46400
H           4.76500         1.37700         0.43000
S           2.67100        -1.28400        -0.78100
H           5.09800        -0.92000        -0.74400
C           0.28700        -0.04000        -0.02100
S          -0.52600        -1.34100         0.84100
C          -2.07900        -0.69300         0.41000
C          -1.94700         0.44300        -0.33300
C          -0.58800         0.81900        -0.59000
H          -0.28300         1.66900        -1.17800
S          -3.50000         1.09100        -0.76700
C          -4.29800        -0.20800         0.08100
C          -3.44000        -1.07700         0.65500
H          -5.37400        -0.24700         0.10200
H          -3.74800        -1.94200         1.21900
H           2.73000         2.43100         1.98300
H           1.08800         2.23400         1.36500
H           2.28300         3.14300         0.43800

D 2 3 9 10 F

