%mem=100GB 
%nprocshared=16 
# opt=modredundant mp2/aug-cc-pvdz 

 pBTTT_160.pdb

0  1
C          -3.96100         0.76900        -0.00400
C          -2.57600         1.12100         0.16600
C          -1.75600         0.04100         0.02700
C          -2.15700         2.53100         0.49500
C          -4.16100        -0.53800        -0.26700
H          -4.76300         1.48600         0.08400
S          -2.67400        -1.40400        -0.33400
H          -5.09700        -1.04700        -0.42200
C          -0.28900        -0.01700         0.05900
S           0.52600        -1.54800         0.38100
C           2.08100        -0.80600         0.16900
C           1.95300         0.51900        -0.12400
C           0.59900         0.97600        -0.20000
H           0.31700         1.97900        -0.46600
S           3.50800         1.26500        -0.33400
C           4.30100        -0.25600        -0.01500
C           3.43800        -1.26400         0.23500
H           5.37600        -0.30900        -0.03300
H           3.74200        -2.27500         0.45200
H          -2.98100         3.06300         0.96700
H          -1.88100         3.08600        -0.40400
H          -1.31000         2.54600         1.17700

D 2 3 9 10 F

