%mem=100GB 
%nprocshared=16 
# opt=modredundant mp2/aug-cc-pvdz 

 pBTTT_0.pdb

0  1
C          -4.04300         0.25800        -0.00000
C          -2.72100         0.83400         0.00000
C          -1.74900        -0.12200         0.00000
C          -2.53100         2.33200         0.00000
C          -4.05100        -1.08900        -0.00000
H          -4.94000         0.85700        -0.00000
S          -2.45000        -1.72700        -0.00000
H          -4.90200        -1.74700        -0.00000
C          -0.28400        -0.00500         0.00000
S           0.54100         1.55500        -0.00000
C           2.09100         0.77800        -0.00000
C           1.95800        -0.57900         0.00000
C           0.60400        -1.03300         0.00000
H           0.31600        -2.07100         0.00000
S           3.51100        -1.35900         0.00000
C           4.31000         0.19200         0.00000
C           3.45100         1.23400        -0.00000
H           5.38600         0.23600        -0.00000
H           3.75900         2.26600        -0.00000
H          -3.50000         2.82500         0.00000
H          -1.98700         2.66900        -0.88100
H          -1.98700         2.66900         0.88200

D 2 3 9 10 F

