%mem=100GB 
%nprocshared=16 
# opt=modredundant mp2/aug-cc-pvdz 

 pBTTT_-10.pdb

0  1
C          -4.04200         0.25700         0.05100
C          -2.72000         0.83200         0.09300
C          -1.74900        -0.12100         0.01600
C          -2.52900         2.32400         0.21800
C          -4.05000        -1.08500        -0.06000
H          -4.94000         0.85300         0.10700
S          -2.44900        -1.72000        -0.12500
H          -4.90200        -1.74200        -0.10700
C          -0.28400        -0.00500         0.01000
S           0.54000         1.54700        -0.14600
C           2.09100         0.77300        -0.08000
C           1.95800        -0.57600         0.05500
C           0.60300        -1.02800         0.11000
H           0.31500        -2.06000         0.22200
S           3.51100        -1.35200         0.12900
C           4.30900         0.19200        -0.02600
C           3.45100         1.22800        -0.12600
H           5.38500         0.23500        -0.03400
H           3.75800         2.25500        -0.22900
H          -3.48800         2.80300         0.40300
H          -2.11500         2.75300        -0.69500
H          -1.86400         2.57900         1.04100

D 2 3 9 10 F

