%mem=100GB 
%nprocshared=16 
# opt=modredundant mp2/aug-cc-pvdz 

 pBTTT_-170.pdb

0  1
C           3.96400         0.77400        -0.01500
C           2.57600         1.13900         0.09000
C           1.75600         0.05000         0.02600
C           2.15800         2.57500         0.27600
C           4.16900        -0.55100        -0.15900
H           4.76400         1.49700         0.02500
S           2.68300        -1.41900        -0.18300
H           5.10700        -1.07100        -0.25100
C           0.28800        -0.01300         0.04600
S          -0.52100        -1.57300         0.21500
C          -2.08000        -0.82200         0.09200
C          -1.96000         0.52600        -0.06500
C          -0.60900         0.99700        -0.10000
H          -0.34300         2.02600        -0.25100
S          -3.52000         1.28200        -0.18600
C          -4.30400        -0.26800        -0.01700
C          -3.43500        -1.29100         0.12200
H          -5.37900        -0.32400        -0.03200
H          -3.73300        -2.32100         0.23900
H           3.02000         3.18100         0.54500
H           1.41600         2.67500         1.06800
H           1.73600         2.99100        -0.64100

D 2 3 9 10 F

