%mem=100GB 
%nprocshared=16 
# opt=modredundant mp2/aug-cc-pvdz 

 pBTTT_-140.pdb

0  1
C           3.96000         0.75100         0.06900
C           2.57200         1.07500         0.28600
C           1.75600         0.03000        -0.01600
C           2.14500         2.41800         0.81800
C           4.15800        -0.50400        -0.37900
H           4.76300         1.44700         0.26200
S           2.67000        -1.35300        -0.57400
H           5.09500        -0.98500        -0.60400
C           0.28900        -0.02900         0.02200
S          -0.52900        -1.47000         0.61900
C          -2.08000        -0.76200         0.29200
C          -1.94700         0.49100        -0.22900
C          -0.58800         0.91400        -0.39700
H          -0.28800         1.85200        -0.83200
S          -3.49800         1.20200        -0.55700
C          -4.29800        -0.23400         0.02900
C          -3.44200        -1.18900         0.44500
H          -5.37400        -0.28000         0.02800
H          -3.75100        -2.14400         0.83800
H           2.86200         2.77200         1.55900
H           1.16600         2.36900         1.28800
H           2.10400         3.16200         0.02100

D 2 3 9 10 F

