%mem=100GB 
%nprocshared=16 
# opt=modredundant mp2/aug-cc-pvdz 

 pBTTT_55.pdb

0  1
C           4.01900         0.30000         0.29900
C           2.67100         0.78300         0.47300
C           1.75200        -0.11800         0.03900
C           2.38400         2.12200         1.10100
C           4.08600        -0.92900        -0.25000
H           4.88900         0.86700         0.59400
S           2.51600        -1.55600        -0.59700
H           4.96800        -1.50600        -0.46900
C           0.28300        -0.02500         0.01100
S          -0.52100         1.31800        -0.79400
C          -2.07900         0.65700        -0.40600
C          -1.95700        -0.51700         0.27700
C          -0.60200        -0.91400         0.52000
H          -0.30400        -1.80300         1.05100
S          -3.51400        -1.17900         0.66800
C          -4.30200         0.16800        -0.11200
C          -3.43700         1.06100        -0.63500
H          -5.37800         0.21200        -0.13700
H          -3.73800         1.95600        -1.15600
H           2.99600         2.25300         1.99400
H           1.34100         2.21900         1.38600
H           2.62500         2.93500         0.41400

D 2 3 9 10 F

