%mem=480GB 
%nprocshared=40 
# mp2/aug-cc-pvdz MaxDisk=400GB 

 NDI_-165_b3lyp.pdb

0  1
C          -3.51500        -2.68700         0.19900
C          -2.77000        -1.41900        -0.01800
C          -3.43000        -0.17400         0.09800
C          -4.79700        -0.11200         0.43400
C          -5.57000        -1.36100         0.66500
C          -1.42800        -1.46500        -0.28500
C          -2.68300         1.01200        -0.13700
C          -1.29800         0.94800        -0.47300
C          -0.62800        -0.30000        -0.49000
C          -0.65900         2.20400        -0.93800
C          -2.65800         3.52800        -0.26300
C          -3.36400         2.25000        -0.01800
C          -4.70800         2.29100         0.32600
C          -5.43000         1.11500         0.55100
H          -6.48000         1.14300         0.81400
H          -5.18200         3.26100         0.41400
H          -0.96300        -2.44000        -0.28600
N          -1.34300         3.41300        -0.71500
N          -4.87100        -2.57300         0.52400
O          -2.99400        -3.78400         0.10300
O          -6.75000        -1.34700         0.95900
O          -3.19100         4.61400        -0.10800
O           0.41000         2.24000        -1.52200
C          -0.63300         4.63900        -1.10800
H           0.36600         4.63300        -0.67500
H          -0.53600         4.68700        -2.19400
H          -1.20800         5.48500        -0.74600
C          -5.59800        -3.83300         0.73700
H          -5.54400        -4.44500        -0.16400
H          -5.14200        -4.38800         1.55800
H          -6.62900        -3.58800         0.97000
C           0.81100        -0.55100        -0.56800
C           1.38300        -1.78100        -0.87700
S           2.03400         0.53300         0.04900
C           2.76500        -1.84000        -0.64000
H           0.82200        -2.60400        -1.29200
C           3.29500        -0.66900        -0.09400
O           3.59000        -2.89300        -0.88400
C           4.65900        -0.41700         0.27600
C           3.01500        -4.08500        -1.41100
C           5.19100         0.74700         0.82500
S           5.94000        -1.60900         0.08400
H           3.83800        -4.78900        -1.52300
H           2.27000        -4.50000        -0.72500
H           2.55700        -3.90200        -2.38900
C           6.58800         0.68300         1.08100
O           4.37400         1.80200         1.06800
C           7.11700        -0.52800         0.73000
H           7.17100         1.48800         1.50300
C           4.95400         3.00000         1.57800
H           8.14400        -0.84700         0.81700
H           5.70100         3.40000         0.88600
H           4.13300         3.70800         1.67700
H           5.40900         2.83000         2.55900

D 8 9 32 33 F

