%mem=480GB 
%nprocshared=40 
# mp2/aug-cc-pvdz MaxDisk=400GB 

 NDI_95_b3lyp.pdb

0  1
C           3.28400        -2.84200        -0.13200
C           2.64100        -1.50100        -0.14700
C           3.41600        -0.33800         0.04900
C           4.80900        -0.42900         0.26800
C           5.48300        -1.75600         0.29400
C           1.28300        -1.39500        -0.35000
C           2.77800         0.93200         0.02300
C           1.37500         1.02400        -0.20000
C           0.62200        -0.14200        -0.37900
C           0.74900         2.38100        -0.25600
C           2.95900         3.44100         0.21700
C           3.57200         2.08700         0.22600
C           4.93400         1.97500         0.44200
C           5.55700         0.71800         0.46200
H           6.62200         0.62700         0.63000
H           5.50700         2.88100         0.59500
H           0.70200        -2.29800        -0.48900
N           1.58200         3.48900        -0.01800
N           4.66600        -2.88000         0.09200
O           2.66000        -3.87200        -0.30500
O           6.68000        -1.86800         0.48100
O           3.61400         4.45000         0.39900
O          -0.42600         2.56800        -0.49600
C           0.92500         4.80400        -0.05600
H           0.51400         4.98500        -1.05000
H           0.10700         4.82400         0.66300
H           1.66900         5.55500         0.18800
C           5.28700        -4.21300         0.10800
H           4.82400        -4.82300         0.88400
H           5.13200        -4.70200        -0.85400
H           6.34600        -4.08600         0.30400
C          -0.84400        -0.17600        -0.59800
C          -1.51000        -0.22900        -1.79100
S          -1.93500        -0.26500         0.75300
C          -2.92000        -0.31500        -1.62400
H          -1.00900        -0.18300        -2.74700
C          -3.33900        -0.34800        -0.30400
O          -3.84400        -0.37700        -2.62300
C          -4.68700        -0.44200         0.20100
C          -3.38900        -0.24600        -3.96400
C          -5.09900        -0.48800         1.52400
S          -6.09600        -0.51000        -0.84900
H          -4.28100        -0.28600        -4.58800
H          -2.88000         0.71100        -4.11800
H          -2.72000        -1.06900        -4.23800
C          -6.51000        -0.57300         1.69500
O          -4.16600        -0.45200         2.51800
C          -7.17100        -0.59300         0.49900
H          -7.01000        -0.61800         2.65200
C          -4.62300        -0.48100         3.86400
H          -8.23500        -0.65300         0.33200
H          -5.16800        -1.40600         4.07800
H          -3.72900        -0.43700         4.48500
H          -5.26100         0.38200         4.08500

D 8 9 32 33 F

