%mem=480GB 
%nprocshared=40 
# mp2/aug-cc-pvdz MaxDisk=400GB 

 NDI_-155_b3lyp.pdb

0  1
C          -3.42200        -2.68800         0.43200
C          -2.73700        -1.38800         0.20600
C          -3.48500        -0.19500         0.09000
C          -4.89100        -0.22000         0.15900
C          -5.61000        -1.50300         0.37600
C          -1.37300        -1.35700         0.11300
C          -2.78100         1.02600        -0.09000
C          -1.35100         1.05200        -0.13400
C          -0.60900        -0.16000        -0.09000
C          -0.71200         2.37700        -0.23600
C          -2.90900         3.51200        -0.48800
C          -3.55500         2.20400        -0.24200
C          -4.94200         2.15900        -0.18700
C          -5.61600         0.95400         0.02300
H          -6.69700         0.91600         0.07500
H          -5.48600         3.08700        -0.31600
H          -0.86000        -2.29700         0.24600
N          -1.51500         3.49800        -0.50400
N          -4.81800        -2.65800         0.50500
O          -2.82000        -3.74100         0.54500
O          -6.82300        -1.56200         0.44400
O          -3.54200         4.54000        -0.65900
O           0.48800         2.55300        -0.09500
C          -0.80800         4.77400        -0.68100
H          -0.36000         5.09300         0.26200
H          -0.01400         4.64800        -1.41500
H          -1.53400         5.50900        -1.01600
C          -5.48700        -3.94800         0.72600
H          -5.24300        -4.63400        -0.08600
H          -5.14100        -4.38600         1.66200
H          -6.55700        -3.76800         0.76200
C           0.82800        -0.41000        -0.24100
C           1.31600        -1.64500        -0.67100
S           2.17700         0.61700         0.22600
C           2.70900        -1.76500        -0.61600
H           0.67900        -2.42700        -1.05300
C           3.35000        -0.63300        -0.10800
O           3.45000        -2.83600        -1.00600
C           4.76200        -0.45000         0.08700
C           2.76200        -4.00200        -1.44800
C           5.41200         0.67300         0.59200
S           5.95500        -1.68700        -0.29900
H           3.53300        -4.73500        -1.67900
H           2.10700        -4.39500        -0.66400
H           2.17600        -3.79500        -2.35000
C           6.82600         0.54400         0.66500
O           4.68200         1.75400         0.96200
C           7.25100        -0.67700         0.21900
H           7.49400         1.31100         1.03000
C           5.37100         2.90800         1.43300
H           8.26600        -1.04100         0.16500
H           6.04800         3.30200         0.66900
H           4.60000         3.64400         1.65100
H           5.93200         2.68500         2.34700

D 8 9 32 33 F

