%mem=480GB 
%nprocshared=40 
# mp2/aug-cc-pvdz MaxDisk=400GB 

 NDI_60_b3lyp.pdb

0  1
C          -2.69000        -2.92200         0.62600
C          -2.31900        -1.50400         0.37500
C          -3.31700        -0.54200         0.10000
C          -4.67700        -0.91400         0.04800
C          -5.08400        -2.32100         0.30600
C          -0.99900        -1.13300         0.41900
C          -2.92500         0.80400        -0.14100
C          -1.55200         1.18300        -0.07100
C          -0.57200         0.21400         0.23200
C          -1.20400         2.60200        -0.36200
C          -3.60200         3.14200        -0.79400
C          -3.94000         1.73700        -0.47000
C          -5.27000         1.35100        -0.51900
C          -5.64600         0.02900        -0.25400
H          -6.68400        -0.27700        -0.29000
H          -6.01100         2.09800        -0.77600
H          -0.26200        -1.89300         0.64400
N          -2.24300         3.46100        -0.76600
N          -4.05400        -3.23600         0.57700
O          -1.86800        -3.78700         0.86500
O          -6.24900        -2.67100         0.28300
O          -4.44900         3.97100        -1.07800
O          -0.07800         3.05600        -0.28200
C          -1.84700         4.83900        -1.09400
H          -1.48900         5.35100        -0.20000
H          -1.04100         4.81800        -1.82500
H          -2.71900         5.34900        -1.49100
C          -4.40800        -4.64000         0.83300
H          -3.92000        -5.28200         0.10000
H          -4.06600        -4.93000         1.82700
H          -5.48700        -4.73100         0.76100
C           0.87600         0.43800         0.33200
C           1.58200         1.27100         1.16800
S           1.95600        -0.66100        -0.50200
C           2.97600         1.05600         1.12000
H           1.10700         2.02000         1.78100
C           3.37300         0.04600         0.24700
O           3.92100         1.73300         1.82600
C           4.71200        -0.36800        -0.07300
C           3.50300         2.86200         2.58800
C           5.10300        -1.40100        -0.91700
S           6.14100         0.41700         0.58700
H           4.41100         3.29300         3.00500
H           3.00300         3.60000         1.95300
H           2.83700         2.56300         3.40300
C           6.51200        -1.55800        -1.03200
O           4.15300        -2.14600        -1.54300
C           7.19100        -0.64500        -0.27500
H           6.99800        -2.30800        -1.64000
C           4.58100        -3.21900        -2.37600
H           8.26000        -0.54000        -0.17000
H           5.15300        -3.95800        -1.80500
H           3.67300        -3.68100        -2.75800
H           5.18300        -2.85200        -3.21300

D 8 9 32 33 F

