%mem=480GB 
%nprocshared=40 
# mp2/aug-cc-pvdz MaxDisk=400GB 

 NDI_70_b3lyp.pdb

0  1
C          -2.84000        -2.89800         0.62100
C          -2.39900        -1.49900         0.37400
C          -3.34600        -0.49400         0.07800
C          -4.72300        -0.80100         0.00800
C          -5.19900        -2.18900         0.25900
C          -1.06200        -1.18500         0.44400
C          -2.89300         0.83200        -0.16300
C          -1.50500         1.14500        -0.08200
C          -0.58300         0.14000         0.25700
C          -1.07400         2.53600        -0.40600
C          -3.44700         3.20900        -0.79300
C          -3.85800         1.81600        -0.49300
C          -5.20300         1.49300        -0.55600
C          -5.64100         0.18600        -0.30300
H          -6.69200        -0.07000        -0.35200
H          -5.90700         2.27500        -0.81200
H          -0.35800        -1.97100         0.68500
N          -2.07400         3.46100        -0.76000
N          -4.21600        -3.14900         0.54700
O          -2.06200        -3.79700         0.87800
O          -6.37800        -2.48400         0.21700
O          -4.25300         4.08200        -1.06300
O           0.08400         2.90600        -0.39400
C          -1.60600         4.81600        -1.08700
H          -1.12600         5.26600        -0.21700
H          -0.87500         4.76500        -1.89300
H          -2.46900         5.40200        -1.38600
C          -4.63800        -4.53500         0.79700
H          -4.15900        -5.20000         0.07800
H          -4.33500        -4.83700         1.80000
H          -5.71700        -4.57900         0.69700
C           0.87000         0.33000         0.40300
C           1.55100         1.00900         1.38100
S           1.95900        -0.61100        -0.58400
C           2.95100         0.81100         1.31700
H           1.05800         1.63800         2.10700
C           3.36500        -0.03700         0.29700
O           3.88100         1.36000         2.14600
C           4.71100        -0.39500        -0.06700
C           3.44900         2.36300         3.06000
C           5.11800        -1.27200        -1.06400
S           6.12800         0.27200         0.73500
H           4.34900         2.71600         3.56300
H           2.97100         3.19600         2.53400
H           2.76000         1.95000         3.80300
C           6.52900        -1.40700        -1.18300
O           4.17900        -1.90600        -1.81800
C           7.19500        -0.63100        -0.27600
H           7.02600        -2.04500        -1.89900
C           4.62500        -2.81600        -2.81800
H           8.26200        -0.54500        -0.13900
H           5.19300        -3.64100        -2.37600
H           3.72400        -3.20900        -3.28700
H           5.23500        -2.30800        -3.57100

D 8 9 32 33 F

