%mem=480GB 
%nprocshared=40 
# mp2/aug-cc-pvdz MaxDisk=400GB 

 NDI_150_b3lyp.pdb

0  1
C           3.41500        -2.68400         0.48900
C           2.73100        -1.38600         0.24700
C           3.48200        -0.19800         0.10100
C           4.88900        -0.22600         0.15300
C           5.60700        -1.50800         0.38700
C           1.36600        -1.35200         0.16400
C           2.78200         1.02200        -0.09400
C           1.35300         1.05400        -0.12200
C           0.60900        -0.15300        -0.05000
C           0.71600         2.38100        -0.22000
C           2.91100         3.49900        -0.54900
C           3.55700         2.19500        -0.28200
C           4.94400         2.14600        -0.24500
C           5.61700         0.94200        -0.01700
H           6.69700         0.90100         0.02100
H           5.49100         3.06700        -0.40200
H           0.84500        -2.28600         0.31100
N           1.51500         3.49100        -0.53700
N           4.81200        -2.65700         0.54800
O           2.81200        -3.73300         0.62600
O           6.82000        -1.57000         0.44100
O           3.54300         4.52000        -0.75700
O          -0.47700         2.56400        -0.03200
C           0.81200         4.76800        -0.72100
H          -0.02100         4.62400        -1.40700
H           0.41700         5.12400         0.23200
H           1.52500         5.48400        -1.11800
C           5.47900        -3.94500         0.78600
H           5.13200        -4.37000         1.72800
H           5.23500        -4.64200        -0.01700
H           6.54900        -3.76600         0.82000
C          -0.82800        -0.39800        -0.21400
C          -1.30900        -1.60900        -0.71100
S          -2.17700         0.60700         0.28900
C          -2.70400        -1.73100        -0.67400
H          -0.66400        -2.37100        -1.12100
C          -3.34900        -0.62500        -0.11400
O          -3.44200        -2.78000        -1.12400
C          -4.76200        -0.45100         0.08000
C          -2.75000        -3.92700        -1.60700
C          -5.41500         0.64600         0.63600
S          -5.95200        -1.66600        -0.37400
H          -3.52000        -4.64700        -1.88000
H          -2.15200        -3.68300        -2.49100
H          -2.10700        -4.35500        -0.83100
C          -6.82900         0.51400         0.69400
O          -4.68600         1.70600         1.06300
C          -7.25200        -0.68200         0.18500
H          -7.49900         1.26300         1.09200
C          -5.37800         2.83600         1.58700
H          -8.26700        -1.04300         0.10700
H          -5.94500         2.57000         2.48500
H          -4.60800         3.56100         1.84600
H          -6.04900         3.26800         0.83800

D 8 9 32 33 F

