%mem=480GB 
%nprocshared=40 
# mp2/aug-cc-pvdz MaxDisk=400GB 

 NDI_-95_b3lyp.pdb

0  1
C           3.28400        -2.84200         0.13200
C           2.64100        -1.50100         0.14800
C           3.41600        -0.33800        -0.04800
C           4.80900        -0.42800        -0.26900
C           5.48300        -1.75500        -0.29500
C           1.28300        -1.39600         0.35000
C           2.77700         0.93200        -0.02200
C           1.37500         1.02400         0.20100
C           0.62200        -0.14200         0.37900
C           0.74800         2.38000         0.25700
C           2.95800         3.44100        -0.21600
C           3.57100         2.08700        -0.22600
C           4.93300         1.97600        -0.44200
C           5.55600         0.71900        -0.46300
H           6.62200         0.62800        -0.63000
H           5.50600         2.88200        -0.59600
H           0.70200        -2.29900         0.49000
N           1.58200         3.48900         0.01700
N           4.66700        -2.87900        -0.09200
O           2.66000        -3.87200         0.30400
O           6.68000        -1.86700        -0.48200
O           3.61400         4.45000        -0.39800
O          -0.42500         2.56800         0.49900
C           0.92400         4.80400         0.05500
H           0.09900         4.82000        -0.65700
H           0.52200         4.99000         1.05100
H           1.66600         5.55400        -0.20000
C           5.28700        -4.21200        -0.10800
H           5.12900        -4.70400         0.85200
H           4.82800        -4.82100        -0.88700
H           6.34800        -4.08500        -0.29900
C          -0.84400        -0.17700         0.59900
C          -1.51000        -0.23000         1.79100
S          -1.93500        -0.26500        -0.75200
C          -2.92000        -0.31600         1.62400
H          -1.00900        -0.18400         2.74800
C          -3.33900        -0.34800         0.30400
O          -3.84500        -0.37700         2.62300
C          -4.68700        -0.44100        -0.20100
C          -3.39000        -0.25000         3.96500
C          -5.09900        -0.48700        -1.52500
S          -6.09600        -0.50900         0.84900
H          -4.28100        -0.29000         4.58800
H          -2.72100        -1.07400         4.23700
H          -2.88000         0.70700         4.12000
C          -6.51000        -0.57200        -1.69600
O          -4.16500        -0.45000        -2.51800
C          -7.17000        -0.59200        -0.50000
H          -7.00900        -0.61600        -2.65300
C          -4.62200        -0.48400        -3.86500
H          -8.23500        -0.65200        -0.33300
H          -5.26000         0.37700        -4.08800
H          -3.72800        -0.44100        -4.48500
H          -5.16500        -1.41100        -4.07600

D 8 9 32 33 F

