%mem=480GB 
%nprocshared=40 
# mp2/aug-cc-pvdz MaxDisk=400GB 

 NDI_170_b3lyp.pdb

0  1
C          -3.51900        -2.68200        -0.14200
C          -2.77700        -1.40700         0.04300
C          -3.44100        -0.16700        -0.08900
C          -4.81100        -0.11500        -0.40900
C          -5.58400        -1.37000        -0.60600
C          -1.43300        -1.44600         0.29800
C          -2.69200         1.02400         0.11400
C          -1.30100         0.96900         0.43300
C          -0.62500        -0.27900         0.47500
C          -0.65800         2.24000         0.84400
C          -2.67800         3.54200         0.19200
C          -3.37900         2.25700        -0.02000
C          -4.72800         2.28900        -0.34800
C          -5.45100         1.10800        -0.54200
H          -6.50300         1.12900        -0.79200
H          -5.20500         3.25500        -0.44700
H          -0.97600        -2.42400         0.31500
N          -1.35500         3.44100         0.62400
N          -4.87900        -2.57800        -0.45100
O          -2.99300        -3.77500        -0.03300
O          -6.76700        -1.36500        -0.88600
O          -3.21900         4.62300         0.02800
O           0.43500         2.29800         1.38300
C          -0.64000         4.67600         0.97600
H          -0.47700         4.72100         2.05400
H           0.33000         4.68800         0.48100
H          -1.25000         5.51400         0.65300
C          -5.60500        -3.84300        -0.63100
H          -5.16500        -4.40800        -1.45300
H          -5.53000        -4.44200         0.27700
H          -6.64200        -3.60600        -0.84600
C           0.81200        -0.54400         0.55300
C           1.36500        -1.80200         0.78900
S           2.06800         0.55600         0.02900
C           2.74400        -1.87500         0.55400
H           0.79300        -2.64300         1.14700
C           3.30100        -0.68100         0.08800
O           3.54700        -2.95700         0.73600
C           4.67200        -0.43300        -0.25200
C           2.94700        -4.16800         1.18400
C           5.23400         0.75400        -0.71600
S           5.92700        -1.66300        -0.13500
H           3.75500        -4.89400         1.25500
H           2.48600        -4.03800         2.16900
H           2.19800        -4.52500         0.47000
C           6.63100         0.67800        -0.96600
O           4.44200         1.84100        -0.89000
C           7.13100        -0.56600        -0.69700
H           7.23400         1.49800        -1.32800
C           5.05100         3.05900        -1.31200
H           8.15200        -0.90000        -0.79900
H           5.50900         2.94700        -2.30000
H           4.24600         3.79000        -1.36600
H           5.80200         3.39400        -0.59000

D 8 9 32 33 F

