%mem=480GB 
%nprocshared=40 
# mp2/aug-cc-pvdz MaxDisk=400GB 

 NDI_75_b3lyp.pdb

0  1
C          -2.93700        -2.88400         0.59000
C          -2.45100        -1.49700         0.36000
C          -3.36500        -0.46300         0.05900
C          -4.74900        -0.72800        -0.03200
C          -5.26900        -2.10400         0.20000
C          -1.10700        -1.22200         0.45200
C          -2.87100         0.85200        -0.16500
C          -1.47600         1.12100        -0.06800
C          -0.59100         0.08900         0.27700
C          -0.99600         2.50000        -0.38200
C          -3.34600         3.25500        -0.76200
C          -3.80200         1.86900        -0.49100
C          -5.15500         1.58700        -0.57300
C          -5.63400         0.29000        -0.34200
H          -6.69000         0.06500        -0.40600
H          -5.83400         2.39200        -0.82400
H          -0.42600        -2.02700         0.69700
N          -1.96600         3.46600        -0.70900
N          -4.31800        -3.09500         0.49300
O          -2.19000        -3.80700         0.85200
O          -6.45600        -2.36400         0.13800
O          -4.12300         4.15500        -1.02400
O           0.17500         2.82300        -0.38200
C          -1.45300         4.81000        -1.01200
H          -0.92400         5.20900        -0.14600
H          -0.75300         4.75600        -1.84600
H          -2.30000         5.44000        -1.26300
C          -4.78400        -4.47000         0.72500
H          -4.31300        -5.14300         0.00800
H          -4.50600        -4.78800         1.73000
H          -5.86300        -4.48100         0.60700
C           0.86600         0.24800         0.45200
C           1.53600         0.82300         1.50000
S           1.96000        -0.57600        -0.62500
C           2.93900         0.64000         1.42100
H           1.03600         1.36700         2.28800
C           3.36100        -0.09300         0.32000
O           3.86200         1.10200         2.30900
C           4.71000        -0.41200        -0.07100
C           3.42300         2.00100         3.32100
C           5.12400        -1.17500        -1.15400
S           6.12000         0.16000         0.81000
H           4.31700         2.30000         3.86500
H           2.94800         2.88500         2.88300
H           2.72800         1.51100         4.01200
C           6.53600        -1.29800        -1.27700
O           4.19000        -1.72100        -1.98200
C           7.19600        -0.62800        -0.28500
H           7.03800        -1.85300        -2.05600
C           4.64400        -2.50900        -3.07600
H           8.26200        -0.55800        -0.13200
H           5.21200        -3.37900        -2.72900
H           3.74800        -2.84600        -3.59500
H           5.25900        -1.91600        -3.76200

D 8 9 32 33 F

