%mem=480GB 
%nprocshared=40 
# mp2/aug-cc-pvdz MaxDisk=400GB 

 NDI_120_b3lyp.pdb

0  1
C           3.51700        -2.71100         0.43600
C           2.76600        -1.46300         0.13900
C           3.43400        -0.21700         0.12100
C           4.81600        -0.13500         0.39700
C           5.59400        -1.36300         0.71200
C           1.41000        -1.51900        -0.08900
C           2.69500         0.95700        -0.19000
C           1.30300         0.87500        -0.47000
C           0.64200        -0.35700        -0.36100
C           0.61600         2.09800        -0.97900
C           2.65900         3.45400        -0.52700
C           3.38000         2.19600        -0.20700
C           4.73500         2.25600         0.07600
C           5.45700         1.09200         0.37600
H           6.51600         1.13400         0.59300
H           5.22200         3.22300         0.05900
H           0.91100        -2.47800        -0.02500
N           1.31500         3.31600        -0.88200
N           4.88500        -2.57600         0.70700
O           2.99200        -3.80800         0.44800
O           6.78400        -1.32800         0.96000
O           3.20500         4.54200        -0.50200
O          -0.48800         2.08800        -1.48600
C           0.58200         4.51700        -1.30800
H           0.45300         4.51700        -2.39200
H          -0.40300         4.52000        -0.84500
H           1.15800         5.38500        -1.00400
C           5.61400        -3.81800         1.00500
H           5.17000        -4.30400         1.87400
H           5.54400        -4.49900         0.15600
H           6.64900        -3.55800         1.20100
C          -0.81100        -0.55300        -0.48300
C          -1.46600        -1.33500        -1.40200
S          -1.92300         0.17600         0.64000
C          -2.87200        -1.32700        -1.22300
H          -0.95400        -1.86300        -2.19300
C          -3.30700        -0.56300        -0.14600
O          -3.78600        -1.98700        -1.98500
C          -4.65500        -0.38800         0.32700
C          -3.30900        -2.77900        -3.06700
C          -5.08700         0.37400         1.40400
S          -6.04300        -1.15600        -0.43500
H          -4.19200        -3.21500        -3.53000
H          -2.77900        -2.16500        -3.80200
H          -2.65200        -3.58000        -2.71100
C          -6.49400         0.34700         1.61300
O          -4.17400         1.05500         2.14900
C          -7.13200        -0.43900         0.69400
H          -7.00800         0.87900         2.40000
C          -4.65100         1.86800         3.21500
H          -8.19100        -0.63600         0.61600
H          -5.16500         1.26600         3.97200
H          -3.76900         2.32800         3.65800
H          -5.32200         2.65000         2.84600

D 8 9 32 33 F

