%mem=480GB 
%nprocshared=40 
# mp2/aug-cc-pvdz MaxDisk=400GB 

 NDI_-130_b3lyp.pdb

0  1
C          -3.52500        -2.69600         0.44400
C          -2.77000        -1.45400         0.13800
C          -3.43000        -0.20300         0.12400
C          -4.80800        -0.11200         0.41600
C          -5.59000        -1.33500         0.74200
C          -1.41700        -1.51900        -0.09800
C          -2.68700         0.96400        -0.19900
C          -1.29800         0.87300        -0.49400
C          -0.64000        -0.36300        -0.37800
C          -0.62200         2.08200        -1.04500
C          -2.64100         3.45900        -0.54900
C          -3.36500         2.20800        -0.21300
C          -4.71600         2.27700         0.08700
C          -5.44200         1.12000         0.40000
H          -6.49800         1.16900         0.63000
H          -5.19700         3.24700         0.07300
H          -0.92400        -2.48000        -0.02700
N          -1.30600         3.30800        -0.93500
N          -4.88900        -2.55300         0.72900
O          -3.00700        -3.79700         0.45300
O          -6.77700        -1.29200         1.00500
O          -3.17700         4.55200        -0.51400
O           0.45900         2.05500        -1.59900
C          -0.57900         4.49900        -1.39600
H           0.42600         4.48900        -0.97800
H          -0.49900         4.49700        -2.48500
H          -1.13000         5.37500        -1.06700
C          -5.62300        -3.78900         1.03700
H          -5.56200        -4.47300         0.19100
H          -5.17700        -4.27500         1.90500
H          -6.65500        -3.52300         1.23800
C           0.80900        -0.57100        -0.47700
C           1.45200        -1.50100        -1.26200
S           1.93500         0.28900         0.53400
C           2.85400        -1.49900        -1.07700
H           0.93000        -2.13300        -1.96600
C           3.30200        -0.59300        -0.12000
O           3.75700        -2.28300        -1.72700
C           4.65200        -0.38100         0.32800
C           3.26600        -3.22200        -2.67700
C           5.09800         0.52100         1.28800
S           6.02500        -1.27900        -0.30700
H           4.14100        -3.74100        -3.06400
H           2.59300        -3.94600        -2.20500
H           2.74800        -2.71800        -3.49900
C           6.50300         0.49400         1.50600
O           4.19800         1.32000         1.92100
C           7.12600        -0.42900         0.71300
H           7.02600         1.12400         2.21000
C           4.68900         2.27200         2.85800
H           8.18000        -0.65800         0.67100
H           5.37700         2.97800         2.38000
H           3.81600         2.80900         3.22500
H           5.19000         1.77800         3.69700

D 8 9 32 33 F

