%mem=480GB 
%nprocshared=40 
# mp2/aug-cc-pvdz MaxDisk=400GB 

 NDI_-30_b3lyp.pdb

0  1
C           2.59200        -3.00700         0.30800
C           2.27000        -1.56400         0.15200
C           3.30500        -0.60300         0.07500
C           4.65500        -0.99800         0.15400
C           5.01300        -2.43200         0.32400
C           0.96000        -1.16700         0.12100
C           2.95300         0.76500        -0.09800
C           1.58400         1.16600        -0.17000
C           0.55900         0.19800        -0.00100
C           1.30800         2.57700        -0.55100
C           3.73600         3.13900        -0.40400
C           4.01300         1.70200        -0.19300
C           5.33700         1.29500        -0.10000
C           5.66500        -0.05200         0.07300
H           6.69600        -0.37500         0.14000
H           6.10800         2.05100        -0.17100
H           0.20700        -1.93500         0.24000
N           2.39400         3.47200        -0.59400
N           3.94700        -3.34600         0.38500
O           1.73600        -3.87100         0.36900
O           6.16800        -2.80500         0.40400
O           4.61700         3.98100        -0.43500
O           0.20600         3.00600        -0.84900
C           2.06500         4.86600        -0.92600
H           1.62800         4.91700        -1.92300
H           1.33700         5.25300        -0.21300
H           2.98400         5.44200        -0.88200
C           4.25400        -4.77500         0.54300
H           3.79100        -5.15100         1.45600
H           3.85200        -5.33300        -0.30200
H           5.33300        -4.88100         0.59100
C          -0.87000         0.44500         0.14400
C          -1.54800         1.51900         0.68600
S          -2.01000        -0.80200        -0.35000
C          -2.94200         1.34700         0.71300
H          -1.05100         2.40100         1.05200
C          -3.38600         0.13700         0.17300
O          -3.85600         2.22700         1.19800
C          -4.74000        -0.31300         0.02400
C          -3.38900         3.50200         1.63300
C          -5.17900        -1.52800        -0.49700
S          -6.13200         0.65500         0.49600
H          -4.27800         4.06300         1.91600
H          -2.73100         3.40300         2.50200
H          -2.86400         4.02300         0.82700
C          -6.59200        -1.67600        -0.51600
O          -4.26600        -2.43400        -0.92800
C          -7.22800        -0.57600        -0.01000
H          -7.11300        -2.54900        -0.88200
C          -4.73700        -3.67800        -1.43900
H          -8.29100        -0.42000         0.09600
H          -5.36200        -3.52700        -2.32500
H          -3.84800        -4.24300        -1.71200
H          -5.29900        -4.22800        -0.67700

D 8 9 32 33 F

