%mem=480GB 
%nprocshared=40 
# mp2/aug-cc-pvdz MaxDisk=400GB 

 NDI_90_b3lyp.pdb

0  1
C          -3.19600        -2.85600         0.31800
C          -2.59300        -1.49900         0.23900
C          -3.40500        -0.37300        -0.01600
C          -4.79800        -0.51700        -0.20600
C          -5.43300        -1.86200        -0.13500
C          -1.23600        -1.34100         0.41800
C          -2.80400         0.91400        -0.08400
C          -1.40100         1.05900         0.10900
C          -0.61400        -0.06800         0.36600
C          -0.80700         2.42900         0.02700
C          -3.06000         3.39700        -0.44300
C          -3.63400         2.03000        -0.35000
C          -4.99600         1.86600        -0.53300
C          -5.58200         0.59400        -0.46000
H          -6.64700         0.46200        -0.60300
H          -5.59700         2.74300        -0.73500
H          -0.62800        -2.21600         0.61000
N          -1.68000         3.49700        -0.25600
N          -4.58000        -2.94700         0.12100
O          -2.53900        -3.85500         0.54200
O          -6.62900        -2.01800        -0.29200
O          -3.74900         4.37500        -0.66900
O           0.37300         2.66100         0.18700
C          -1.05600         4.82700        -0.34100
H          -0.59300         5.08000         0.61400
H          -0.28100         4.82000        -1.10700
H          -1.83300         5.54300        -0.58700
C          -5.16100        -4.29500         0.19900
H          -4.69200        -4.94000        -0.54400
H          -4.97800        -4.71800         1.18700
H          -6.22700        -4.21100         0.01400
C           0.85200        -0.04400         0.58700
C           1.51800         0.09900         1.77200
S           1.94200        -0.37000        -0.72800
C           2.92700        -0.02300         1.62400
H           1.01800         0.30300         2.70800
C           3.34600        -0.27800         0.32800
O           3.85100         0.07700         2.62000
C           4.69400        -0.44500        -0.15600
C           3.40200         0.47100         3.91100
C           5.10600        -0.72000        -1.45200
S           6.10500        -0.30900         0.88500
H           4.29500         0.53700         4.53100
H           2.90900         1.44700         3.87700
H           2.72100        -0.27300         4.33800
C           6.51700        -0.81700        -1.60900
O           4.17100        -0.87000        -2.43300
C           7.17900        -0.61600        -0.43100
H           7.01700        -1.02500        -2.54400
C           4.62700        -1.14000        -3.75300
H           8.24500        -0.63600        -0.25900
H           5.17900        -2.08400        -3.79700
H           3.73200        -1.21700        -4.36900
H           5.25700        -0.32700        -4.12900

D 8 9 32 33 F

