%mem=480GB 
%nprocshared=40 
# mp2/aug-cc-pvdz MaxDisk=400GB 

 NDI_160_b3lyp.pdb

0  1
C          -3.42300        -2.69600        -0.36200
C          -2.73900        -1.39200        -0.15400
C          -3.48500        -0.19400        -0.08300
C          -4.88800        -0.21600        -0.18600
C          -5.60700        -1.50300        -0.38700
C          -1.37800        -1.36400        -0.03800
C          -2.77900         1.02700         0.08600
C          -1.34900         1.04900         0.16600
C          -0.60900        -0.16700         0.15200
C          -0.71100         2.37200         0.29100
C          -2.91100         3.52300         0.41400
C          -3.55300         2.21100         0.18700
C          -4.93900         2.17000         0.09600
C          -5.61300         0.96300        -0.09900
H          -6.69200         0.92700        -0.17700
H          -5.48100         3.10300         0.18400
H          -0.87100        -2.31000        -0.14500
N          -1.51900         3.50400         0.48500
N          -4.81700        -2.66400        -0.46800
O          -2.82300        -3.75300        -0.43500
O          -6.81800        -1.55900        -0.48100
O          -3.54500         4.55900         0.53100
O           0.49800         2.54100         0.23400
C          -0.81300         4.77900         0.67100
H          -0.08400         4.67700         1.47300
H          -0.28400         5.05400        -0.24300
H          -1.55400         5.53400         0.91400
C          -5.48600        -3.95700        -0.67100
H          -5.11600        -4.42200        -1.58600
H          -5.26700        -4.62000         0.16600
H          -6.55300        -3.77300        -0.74200
C           0.82900        -0.42000         0.29000
C           1.32700        -1.67400         0.65600
S           2.17300         0.62600        -0.15300
C           2.71700        -1.79200         0.57200
H           0.70100        -2.47400         1.01600
C           3.35100        -0.63700         0.10300
O           3.46400        -2.87900         0.90000
C           4.75900        -0.44500        -0.10400
C           2.78300        -4.06000         1.31200
C           5.40200         0.69900        -0.56800
S           5.95700        -1.69900         0.20600
H           3.55800        -4.80200         1.49800
H           2.21700        -3.88800         2.23400
H           2.11100        -4.42200         0.52800
C           6.81500         0.57300        -0.66900
O           4.66800         1.79600        -0.87600
C           7.24600        -0.66700        -0.28600
H           7.47700         1.35600        -1.00900
C           5.35000         2.96900        -1.30900
H           8.26100        -1.03300        -0.26500
H           5.89500         2.78600        -2.24100
H           4.57600         3.71500        -1.48100
H           6.04000         3.32900        -0.54000

D 8 9 32 33 F

