%mem=480GB 
%nprocshared=40 
# mp2/aug-cc-pvdz MaxDisk=400GB 

 NDI_100_b3lyp.pdb

0  1
C           3.36700        -2.81500         0.07100
C           2.68600        -1.49800        -0.04400
C           3.42500        -0.30100         0.07800
C           4.81700        -0.33500         0.31900
C           5.52800        -1.63700         0.44700
C           1.32700        -1.44600        -0.26100
C           2.75200         0.94400        -0.04800
C           1.35000         0.97900        -0.29300
C           0.63000        -0.21700        -0.37700
C           0.69500         2.30800        -0.49500
C           2.85800         3.46500        -0.03600
C           3.50900         2.13400         0.08100
C           4.87100         2.07800         0.32100
C           5.52900         0.84500         0.43900
H           6.59500         0.79700         0.62500
H           5.41600         3.00900         0.41500
H           0.77300        -2.37300        -0.33500
N           1.48800         3.45500        -0.30700
N           4.74700        -2.79500         0.31200
O           2.77600        -3.87200        -0.03700
O           6.72500        -1.70000         0.65500
O           3.48000         4.50400         0.09000
O          -0.46700         2.44100        -0.81600
C           0.79900         4.74400        -0.47100
H           0.46400         4.85900        -1.50300
H          -0.07400         4.77500         0.17900
H           1.50000         5.53200        -0.21300
C           5.40500        -4.10500         0.42800
H           4.95200        -4.67300         1.24000
H           5.27600        -4.66500        -0.49900
H           6.45900        -3.93300         0.62400
C          -0.83400        -0.31100        -0.58100
C          -1.49900        -0.56700        -1.74900
S          -1.92800        -0.15300         0.76100
C          -2.91000        -0.61600        -1.57200
H          -0.99700        -0.68500        -2.69800
C          -3.33000        -0.41700        -0.26700
O          -3.83400        -0.84400        -2.54700
C          -4.67800        -0.43100         0.24600
C          -3.37300        -0.99300        -3.88400
C          -5.09300        -0.23800         1.55500
S          -6.08400        -0.70700        -0.77500
H          -4.26300        -1.14500        -4.49200
H          -2.84900        -0.09400        -4.22400
H          -2.71500        -1.86300        -3.98300
C          -6.50300        -0.30700         1.73800
O          -4.16300        -0.01000         2.52500
C          -7.16100        -0.55400         0.56600
H          -7.00500        -0.18100         2.68700
C          -4.62200         0.20600         3.85400
H          -8.22400        -0.65500         0.41300
H          -5.15800        -0.67000         4.23500
H          -3.73100         0.37300         4.45600
H          -5.27000         1.08700         3.91100

D 8 9 32 33 F

