%mem=480GB 
%nprocshared=40 
# mp2/aug-cc-pvdz MaxDisk=400GB 

 NDI_145_b3lyp.pdb

0  1
C           3.51500        -2.69500         0.37300
C           2.76400        -1.44500         0.08600
C           3.42400        -0.19400         0.11900
C           4.79400        -0.10900         0.44000
C           5.57100        -1.34000         0.74600
C           1.41700        -1.50500        -0.17000
C           2.68200         0.98000        -0.18600
C           1.29800         0.89500        -0.50800
C           0.63500        -0.34500        -0.43300
C           0.64500         2.11300        -1.06200
C           2.64300         3.48200        -0.47300
C           3.36000         2.22300        -0.15400
C           4.70500         2.28600         0.17700
C           5.42700         1.12400         0.47200
H           6.47900         1.16800         0.72300
H           5.18200         3.25800         0.19900
H           0.93100        -2.47100        -0.12000
N           1.32200         3.33800        -0.90300
N           4.87200        -2.55800         0.68600
O           2.99700        -3.79700         0.34200
O           6.75300        -1.30500         1.03200
O           3.17400         4.57600        -0.39200
O          -0.41300         2.09800        -1.66100
C           0.60900         4.53700        -1.36600
H           0.56500         4.55600        -2.45700
H          -0.41000         4.51800        -0.98200
H           1.14700         5.40600        -1.00200
C           5.60200        -3.80200         0.97200
H           5.14300        -4.31100         1.82000
H           5.55600        -4.46300         0.10700
H           6.63100        -3.54100         1.19800
C          -0.80900        -0.56500        -0.51500
C          -1.43000        -1.65300        -1.09900
S          -1.96300         0.41800         0.34400
C          -2.82400        -1.67300        -0.89200
H          -0.89400        -2.38700        -1.68300
C          -3.29700        -0.62500        -0.10400
O          -3.70300        -2.59300        -1.37200
C          -4.65000        -0.38300         0.31700
C          -3.18700        -3.67300        -2.14300
C          -5.12100         0.65700         1.11100
S          -5.99500        -1.42500        -0.13400
H          -4.04500        -4.28400        -2.41400
H          -2.69700        -3.30900        -3.05200
H          -2.48200        -4.27400        -1.55800
C          -6.52200         0.62100         1.34800
O          -4.24600         1.58200         1.58400
C          -7.11700        -0.44700         0.73600
H          -7.06300         1.34600         1.93900
C          -4.76400         2.67000         2.34400
H          -8.16200        -0.71600         0.74800
H          -5.24300         2.31600         3.26300
H          -3.90700         3.29000         2.60000
H          -5.47700         3.25700         1.75700

D 8 9 32 33 F

