%mem=480GB 
%nprocshared=40 
# mp2/aug-cc-pvdz MaxDisk=400GB 

 NDI_0_b3lyp.pdb

0  1
C          -2.38900        -3.03500         0.17500
C          -2.16500        -1.56500         0.14900
C          -3.25100        -0.67600        -0.02000
C          -4.55600        -1.16900        -0.20300
C          -4.81500        -2.63400        -0.20200
C          -0.89300        -1.08100         0.25700
C          -2.98700         0.72100         0.00800
C          -1.65700         1.22100         0.19800
C          -0.55600         0.31200         0.23700
C          -1.54100         2.67700         0.45300
C          -3.92200         3.05300        -0.17100
C          -4.09500         1.58600        -0.17700
C          -5.37400         1.08300        -0.37700
C          -5.61500        -0.29200        -0.38400
H          -6.61200        -0.68900        -0.52800
H          -6.18100         1.79000        -0.52500
H          -0.11400        -1.82600         0.35000
N          -2.64100         3.50000         0.15200
N          -3.70500        -3.47300        -0.00500
O          -1.48800        -3.83800         0.33700
O          -5.93000        -3.09300        -0.36000
O          -4.83400         3.83000        -0.40300
O          -0.55400         3.21400         0.93500
C          -2.43500         4.94500         0.32400
H          -2.27300         5.18000         1.37700
H          -1.55600         5.25800        -0.23800
H          -3.32400         5.44900        -0.04200
C          -3.91600        -4.92700         0.01400
H          -3.32600        -5.39500        -0.77400
H          -3.59500        -5.33300         0.97300
H          -4.97400        -5.11300        -0.14200
C           0.87500         0.59300         0.15100
C           1.60100         1.76700         0.01100
S           1.99800        -0.78000         0.15500
C           2.98600         1.57400        -0.10200
H           1.14000         2.73600         0.02000
C           3.39600         0.24000        -0.03800
O           3.92400         2.54500        -0.24800
C           4.73300        -0.27100        -0.10300
C           3.48500         3.90200        -0.27400
C           5.13900        -1.60200        -0.02600
S           6.14700         0.76000        -0.30000
H           4.38700         4.50300        -0.37100
H           2.82900         4.08500        -1.13100
H           2.96400         4.16400         0.65200
C           6.54500        -1.78700        -0.12100
O           4.20500        -2.57200         0.12600
C           7.20600        -0.59900        -0.27200
H           7.04100        -2.74500        -0.08100
C           4.64300        -3.92600         0.21400
H           8.27100        -0.44800        -0.36800
H           5.29600        -4.07200         1.08000
H           3.74000        -4.52200         0.33500
H           5.16200        -4.23100        -0.70000

D 8 9 32 33 F

