%mem=480GB 
%nprocshared=40 
# mp2/aug-cc-pvdz MaxDisk=400GB 

 NDI_-20_b3lyp.pdb

0  1
C           2.53300        -3.02600         0.18800
C           2.24000        -1.57300         0.07500
C           3.29200        -0.62700         0.06400
C           4.63200        -1.04700         0.17500
C           4.96100        -2.49200         0.30300
C           0.93900        -1.15200         0.02500
C           2.96500         0.75000        -0.07400
C           1.60400         1.17600        -0.18000
C           0.55600         0.22200        -0.06600
C           1.37300         2.59700        -0.55000
C           3.79500         3.12100        -0.25500
C           4.04200         1.67300        -0.09300
C           5.35500         1.24200         0.03300
C           5.65900        -0.11600         0.16500
H           6.68100        -0.45700         0.25600
H           6.13900         1.98900         0.02100
H           0.17700        -1.91800         0.09900
N           2.46800         3.48100        -0.49400
N           3.87900        -3.39000         0.29500
O           1.66200        -3.87700         0.19100
O           6.10600        -2.88800         0.40700
O           4.68700         3.95100        -0.21100
O           0.30100         3.04500        -0.92100
C           2.17600         4.88800        -0.80000
H           1.82600         4.98200        -1.82900
H           1.39200         5.25400        -0.13800
H           3.09100         5.45400        -0.65700
C           4.15800        -4.82900         0.41100
H           3.66200        -5.23000         1.29400
H           3.77400        -5.34900        -0.46700
H           5.23400        -4.95500         0.48800
C          -0.87000         0.47900         0.08500
C          -1.55600         1.60200         0.51200
S          -2.01400        -0.81000        -0.29200
C          -2.94800         1.43000         0.55600
H          -1.06700         2.51900         0.78500
C          -3.39000         0.17100         0.13800
O          -3.86400         2.35200         0.94800
C          -4.74300        -0.29600         0.04300
C          -3.39700         3.65800         1.28200
C          -5.18000        -1.55500        -0.36100
S          -6.13600         0.70500         0.44000
H          -4.28600         4.24200         1.51100
H          -2.74500         3.62800         2.16000
H          -2.86400         4.11000         0.44000
C          -6.59200        -1.71100        -0.35200
O          -4.26600        -2.49200        -0.71700
C          -7.22900        -0.57200         0.05800
H          -7.11100        -2.61600        -0.63200
C          -4.73500        -3.77900        -1.11400
H          -8.29200        -0.41300         0.16000
H          -5.36800        -3.70800        -2.00400
H          -3.84500        -4.36100        -1.34500
H          -5.28700        -4.26200        -0.30200

D 8 9 32 33 F

