%mem=480GB 
%nprocshared=40 
# mp2/aug-cc-pvdz MaxDisk=400GB 

 NDI_-5_b3lyp.pdb

0  1
C          -2.42300        -3.03900         0.04900
C          -2.18400        -1.57200         0.07300
C          -3.26300        -0.66600        -0.03600
C          -4.58000        -1.13900        -0.19600
C          -4.85500        -2.60000        -0.23900
C          -0.90300        -1.10500         0.16000
C          -2.98400         0.72600         0.02900
C          -1.64500         1.20600         0.19100
C          -0.55500         0.28500         0.18100
C          -1.49900         2.65100         0.49400
C          -3.89800         3.07300        -0.03100
C          -4.08800         1.60900        -0.08900
C          -5.37800         1.12600        -0.26600
C          -5.63400        -0.24600        -0.31500
H          -6.63800        -0.62800        -0.44200
H          -6.18100         1.84600        -0.36200
H          -0.12700        -1.85800         0.19100
N          -2.60300         3.49400         0.27100
N          -3.74800        -3.45800        -0.10600
O          -1.52700        -3.85700         0.15500
O          -5.97900        -3.04300        -0.37900
O          -4.80800         3.86700        -0.20300
O          -0.48600         3.15900         0.95000
C          -2.37600         4.92900         0.49300
H          -2.16100         5.11700         1.54600
H          -1.52200         5.26000        -0.09600
H          -3.27600         5.45500         0.19300
C          -3.97500        -4.90900        -0.13300
H          -3.41800        -5.35300        -0.95800
H          -3.62500        -5.35400         0.79800
H          -5.04000        -5.07800        -0.26000
C           0.87300         0.56000         0.05900
C           1.58400         1.72900        -0.16700
S           2.00900        -0.79200         0.19700
C           2.97200         1.54400        -0.25400
H           1.11400         2.69000        -0.25000
C           3.39600         0.22600        -0.07100
O           3.90000         2.50900        -0.47800
C           4.74000        -0.27300        -0.08000
C           3.44800         3.85600        -0.61000
C           5.16000        -1.58800         0.10500
S           6.14500         0.75600        -0.34000
H           4.34500         4.45800        -0.74700
H           2.79700         3.96600        -1.48200
H           2.91800         4.18200         0.29000
C           6.56800        -1.76400         0.04100
O           4.23500        -2.55500         0.32300
C           7.21900        -0.58400        -0.19300
H           7.07500        -2.71000         0.16100
C           4.68500        -3.89500         0.50800
H           8.28300        -0.42700        -0.28900
H           5.33200        -3.97300         1.38800
H           3.78700        -4.49100         0.66200
H           5.21600        -4.25600        -0.37800

D 8 9 32 33 F

