%mem=480GB 
%nprocshared=40 
# mp2/aug-cc-pvdz MaxDisk=400GB 

 NDI_175_b3lyp.pdb

0  1
C          -3.53600        -2.67100        -0.07400
C          -2.79100        -1.39300         0.06900
C          -3.45600        -0.15500        -0.07600
C          -4.83200        -0.11000        -0.37100
C          -5.60800        -1.36800        -0.52700
C          -1.44400        -1.42900         0.30400
C          -2.70000         1.03600         0.08800
C          -1.30200         0.98600         0.38200
C          -0.62400        -0.26300         0.44300
C          -0.65000         2.26800         0.73200
C          -2.68900         3.55600         0.11300
C          -3.39100         2.26600        -0.05900
C          -4.74600         2.29300        -0.36200
C          -5.47400         1.11100        -0.51800
H          -6.53100         1.12800        -0.74800
H          -5.22300         3.25900        -0.47100
H          -1.00000        -2.41100         0.34000
N          -1.35600         3.46300         0.51500
N          -4.90100        -2.57300        -0.36000
O          -3.00800        -3.76200         0.04700
O          -6.79700        -1.36800        -0.78400
O          -3.23400         4.63300        -0.06000
O           0.46600         2.34300         1.22100
C          -0.63100         4.70500         0.81700
H          -0.40200         4.75500         1.88300
H           0.30800         4.72300         0.26400
H          -1.26500         5.53700         0.52600
C          -5.63100        -3.84100        -0.50000
H          -5.20500        -4.42400        -1.31700
H          -5.54200        -4.41900         0.42000
H          -6.67100        -3.60700        -0.70400
C           0.81200        -0.54400         0.51500
C           1.34600        -1.82700         0.67300
S           2.10100         0.56800         0.09500
C           2.72400        -1.90900         0.44900
H           0.76200        -2.68400         0.96400
C           3.30800        -0.69600         0.07600
O           3.50500        -3.01700         0.56400
C           4.68900        -0.45100        -0.22400
C           2.87800        -4.24400         0.92400
C           5.28200         0.75700        -0.58700
S           5.91800        -1.71300        -0.18500
H           3.67200        -4.98800         0.95400
H           2.40900        -4.17200         1.91100
H           2.13000        -4.53800         0.18000
C           6.68000         0.67000        -0.82400
O           4.51600         1.87000        -0.68600
C           7.15100        -0.60100        -0.64500
H           7.30600         1.50200        -1.11300
C           5.15400         3.10300        -1.00700
H           8.16700        -0.94800        -0.75800
H           5.62200         3.05900        -1.99500
H           4.36500         3.85300        -1.01100
H           5.90200         3.36600        -0.25200

D 8 9 32 33 F

