%mem=480GB 
%nprocshared=40 
# mp2/aug-cc-pvdz MaxDisk=400GB 

 NDI_-15_b3lyp.pdb

0  1
C          -2.49900        -3.03300        -0.12200
C          -2.22300        -1.57400        -0.03400
C          -3.28400        -0.64000        -0.05700
C          -4.61700        -1.07600        -0.18200
C          -4.93000        -2.52600        -0.28500
C          -0.92700        -1.14000         0.02600
C          -2.97100         0.74200         0.06000
C          -1.61700         1.18400         0.18200
C          -0.55500         0.23900         0.09800
C          -1.41200         2.61200         0.53800
C          -3.82800         3.10800         0.17200
C          -4.05700         1.65400         0.04000
C          -5.36500         1.20800        -0.10100
C          -5.65300        -0.15400        -0.20900
H          -6.67100        -0.50800        -0.31100
H          -6.15500         1.94800        -0.12100
H          -0.16100        -1.90300        -0.02100
N          -2.51000         3.48600         0.43200
N          -3.84000        -3.41300        -0.24200
O          -1.62000        -3.87400        -0.09500
O          -6.07000        -2.93600        -0.40000
O          -4.72700         3.92900         0.08900
O          -0.35600         3.07500         0.94000
C          -2.23800         4.90100         0.71800
H          -1.93200         5.02100         1.75700
H          -1.43000         5.25600         0.07900
H          -3.15000         5.45800         0.52500
C          -4.10300        -4.85600        -0.33200
H          -3.59400        -5.26900        -1.20300
H          -3.72200        -5.35600         0.55900
H          -5.17600        -4.99500        -0.41700
C           0.87100         0.50200        -0.05100
C           1.56300         1.64300        -0.41600
S           2.01400        -0.80800         0.26100
C           2.95400         1.46900        -0.46900
H           1.07900         2.57700        -0.63500
C           3.39300         0.18900        -0.11900
O           3.87300         2.40800        -0.81100
C           4.74300        -0.28800        -0.05200
C           3.40900         3.73000        -1.08300
C           5.17600        -1.56700         0.28800
S           6.13900         0.72500        -0.40700
H           4.30000         4.32200        -1.28100
H           2.75900         3.74300        -1.96300
H           2.87500         4.14200        -0.22100
C           6.58800        -1.72800         0.26400
O           4.26000        -2.51600         0.60200
C           7.22800        -0.57300        -0.09300
H           7.10500        -2.64800         0.49900
C           4.72500        -3.82300         0.93300
H           8.29100        -0.41400        -0.19100
H           5.36100        -3.79900         1.82300
H           3.83300        -4.41100         1.14000
H           5.27100        -4.26900         0.09700

D 8 9 32 33 F

