%mem=480GB 
%nprocshared=40 
# mp2/aug-cc-pvdz MaxDisk=400GB 

 NDI_-90_b3lyp.pdb

0  1
C           3.19500        -2.85600         0.31900
C           2.59200        -1.49900         0.24000
C           3.40500        -0.37300        -0.01600
C           4.79800        -0.51700        -0.20500
C           5.43300        -1.86200        -0.13500
C           1.23600        -1.34100         0.41800
C           2.80400         0.91300        -0.08500
C           1.40100         1.05900         0.10800
C           0.61400        -0.06800         0.36600
C           0.80800         2.43000         0.02500
C           3.06100         3.39700        -0.44400
C           3.63400         2.03000        -0.35100
C           4.99600         1.86500        -0.53400
C           5.58200         0.59300        -0.46100
H           6.64700         0.46000        -0.60300
H           5.59800         2.74200        -0.73600
H           0.62800        -2.21500         0.61100
N           1.68000         3.49700        -0.25800
N           4.58000        -2.94700         0.12400
O           2.53800        -3.85500         0.54300
O           6.62800        -2.02000        -0.29200
O           3.75100         4.37500        -0.67000
O          -0.37200         2.66200         0.18600
C           1.05700         4.82700        -0.34500
H           0.27900         4.81800        -1.10800
H           0.59800         5.08400         0.61100
H           1.83300         5.54200        -0.59700
C           5.16000        -4.29600         0.20300
H           4.96600        -4.72200         1.18800
H           4.70000        -4.93800        -0.54800
H           6.22800        -4.21000         0.02900
C          -0.85200        -0.04200         0.58700
C          -1.51800         0.10200         1.77200
S          -1.94200        -0.37000        -0.72700
C          -2.92700        -0.02100         1.62300
H          -1.01800         0.30600         2.70700
C          -3.34600        -0.27700         0.32800
O          -3.85100         0.08100         2.62000
C          -4.69400        -0.44500        -0.15600
C          -3.40200         0.47400         3.91100
C          -5.10600        -0.72100        -1.45100
S          -6.10500        -0.30600         0.88500
H          -4.29400         0.54000         4.53100
H          -2.72100        -0.27000         4.33800
H          -2.90800         1.45000         3.87700
C          -6.51700        -0.81900        -1.60800
O          -4.17100        -0.87400        -2.43200
C          -7.18000        -0.61600        -0.43000
H          -7.01700        -1.02800        -2.54300
C          -4.62600        -1.14600        -3.75200
H          -8.24500        -0.63400        -0.25900
H          -5.25600        -0.33400        -4.12900
H          -3.73100        -1.22500        -4.36700
H          -5.17900        -2.09100        -3.79300

D 8 9 32 33 F

