%mem=480GB 
%nprocshared=40 
# mp2/aug-cc-pvdz MaxDisk=400GB 

 NDI_20_b3lyp.pdb

0  1
C          -2.53400        -3.02600         0.18900
C          -2.24100        -1.57300         0.07500
C          -3.29200        -0.62700         0.06400
C          -4.63200        -1.04600         0.17400
C          -4.96200        -2.49100         0.30300
C          -0.94000        -1.15300         0.02600
C          -2.96500         0.75000        -0.07400
C          -1.60400         1.17600        -0.18000
C          -0.55600         0.22200        -0.06500
C          -1.37300         2.59700        -0.55000
C          -3.79400         3.12200        -0.25500
C          -4.04100         1.67300        -0.09300
C          -5.35500         1.24300         0.03300
C          -5.65900        -0.11400         0.16500
H          -6.68200        -0.45600         0.25600
H          -6.13900         1.99000         0.02100
H          -0.17800        -1.91800         0.10000
N          -2.46700         3.48100        -0.49400
N          -3.88100        -3.39000         0.29400
O          -1.66300        -3.87700         0.19300
O          -6.10700        -2.88700         0.40700
O          -4.68600         3.95200        -0.21100
O          -0.30000         3.04400        -0.92100
C          -2.17400         4.88800        -0.80000
H          -1.38900         5.25300        -0.13800
H          -1.82500         4.98200        -1.82900
H          -3.08900         5.45500        -0.65700
C          -4.16000        -4.82800         0.40900
H          -3.76600        -5.35000        -0.46400
H          -3.67300        -5.22800         1.29800
H          -5.23600        -4.95500         0.47600
C           0.87000         0.47800         0.08600
C           1.55600         1.60100         0.51300
S           2.01400        -0.81000        -0.29100
C           2.94800         1.42900         0.55700
H           1.06600         2.51800         0.78600
C           3.39000         0.17000         0.13900
O           3.86400         2.35100         0.94900
C           4.74300        -0.29700         0.04300
C           3.39700         3.65800         1.27800
C           5.18000        -1.55500        -0.36200
S           6.13600         0.70400         0.44000
H           4.28700         4.24300         1.50600
H           2.86500         4.10800         0.43500
H           2.74500         3.63200         2.15700
C           6.59300        -1.71100        -0.35300
O           4.26600        -2.49200        -0.71800
C           7.22900        -0.57200         0.05800
H           7.11200        -2.61600        -0.63400
C           4.73500        -3.77900        -1.11300
H           8.29200        -0.41300         0.15900
H           5.28700        -4.26200        -0.30100
H           3.84500        -4.36200        -1.34300
H           5.36800        -3.71000        -2.00300

D 8 9 32 33 F

