%mem=480GB 
%nprocshared=40 
# mp2/aug-cc-pvdz MaxDisk=400GB 

 NDI_135_b3lyp.pdb

0  1
C           3.52200        -2.69500         0.42800
C           2.76800        -1.45100         0.12500
C           3.42800        -0.20000         0.12400
C           4.80300        -0.10900         0.42500
C           5.58400        -1.33300         0.74800
C           1.41700        -1.51500        -0.11700
C           2.68500         0.96900        -0.19700
C           1.29800         0.87900        -0.50100
C           0.63800        -0.35900        -0.39400
C           0.63000         2.08800        -1.06000
C           2.64000         3.46500        -0.53400
C           3.36300         2.21300        -0.20000
C           4.71200         2.28100         0.11100
C           5.43600         1.12300         0.42100
H           6.49100         1.17200         0.65800
H           5.19100         3.25200         0.10600
H           0.92600        -2.47800        -0.05100
N           1.31100         3.31400        -0.93600
N           4.88400        -2.55200         0.72300
O           3.00500        -3.79700         0.42600
O           6.76900        -1.29200         1.01900
O           3.17400         4.55900        -0.48700
O          -0.44200         2.06200        -1.63100
C           0.58800         4.50600        -1.40300
H           0.52500         4.50900        -2.49300
H          -0.42300         4.49200        -1.00000
H           1.13300         5.38100        -1.06300
C           5.61700        -3.79000         1.02700
H           5.16500        -4.28200         1.88800
H           5.56300        -4.46800         0.17500
H           6.64700        -3.52400         1.23800
C          -0.80900        -0.57000        -0.48600
C          -1.44500        -1.56000        -1.20300
S          -1.94300         0.33700         0.47300
C          -2.84500        -1.56500        -1.01300
H          -0.91900        -2.23200        -1.86700
C          -3.30100        -0.60400        -0.11300
O          -3.74100        -2.39900        -1.60600
C          -4.65100        -0.38000         0.32600
C          -3.24200        -3.39300        -2.49500
C          -5.10400         0.57400         1.23000
S          -6.01600        -1.33100        -0.24800
H          -4.11200        -3.94500        -2.84400
H          -2.73400        -2.93700        -3.35000
H          -2.55900        -4.07700        -1.98000
C          -6.50900         0.54600         1.45300
O          -4.21200         1.42000         1.81000
C          -7.12300        -0.43100         0.72100
H          -7.03700         1.21200         2.12000
C          -4.71100         2.42400         2.68800
H          -8.17400        -0.67400         0.69700
H          -5.20500         1.97700         3.55700
H          -3.84200         2.99100         3.01800
H          -5.40700         3.09100         2.16900

D 8 9 32 33 F

