%mem=480GB 
%nprocshared=40 
# mp2/aug-cc-pvdz MaxDisk=400GB 

 NDI_140_b3lyp.pdb

0  1
C           3.51900        -2.69500         0.40400
C           2.76600        -1.44800         0.10700
C           3.42600        -0.19700         0.12200
C           4.79900        -0.10800         0.43300
C           5.57700        -1.33600         0.75000
C           1.41700        -1.51100        -0.14100
C           2.68300         0.97400        -0.19300
C           1.29800         0.88600        -0.50600
C           0.63600        -0.35300        -0.41200
C           0.63800         2.09800        -1.06500
C           2.64100         3.47300        -0.50900
C           3.36100         2.21800        -0.18000
C           4.70800         2.28400         0.14100
C           5.43100         1.12400         0.44500
H           6.48500         1.17100         0.68900
H           5.18700         3.25500         0.14800
H           0.92800        -2.47500        -0.08200
N           1.31600         3.32400        -0.92500
N           4.87800        -2.55400         0.70800
O           3.00100        -3.79600         0.38900
O           6.76100        -1.29700         1.02800
O           3.17300         4.56700        -0.44600
O          -0.42700         2.07600        -1.65100
C           0.59800         4.51900        -1.39200
H           0.54600         4.52900        -2.48200
H          -0.41700         4.50300        -1.00000
H           1.13900         5.39200        -1.04000
C           5.61000        -3.79500         1.00500
H           5.15400        -4.29400         1.86000
H           5.56000        -4.46500         0.14700
H           6.63900        -3.53100         1.22300
C          -0.80900        -0.56800        -0.49900
C          -1.43800        -1.61000        -1.15000
S          -1.95200         0.37900         0.41100
C          -2.83500        -1.62100        -0.95200
H          -0.90700        -2.31400        -1.77400
C          -3.29900        -0.61400        -0.10800
O          -3.72300        -2.50000        -1.48900
C          -4.65100        -0.38100         0.32200
C          -3.21600        -3.54000        -2.32000
C          -5.11200         0.61900         1.17200
S          -6.00600        -1.37800        -0.19200
H          -4.08100        -4.12300        -2.63100
H          -2.71700        -3.12900        -3.20300
H          -2.52300        -4.18300        -1.76800
C          -6.51500         0.58800         1.40100
O          -4.22800         1.50600         1.69900
C          -7.12000        -0.43700         0.72800
H          -7.04900         1.28400         2.03000
C          -4.73600         2.55400         2.51900
H          -8.16900        -0.69300         0.72200
H          -5.22200         2.15300         3.41400
H          -3.87200         3.14800         2.81300
H          -5.43900         3.18200         1.96400

D 8 9 32 33 F

