%mem=480GB 
%nprocshared=40 
# mp2/aug-cc-pvdz MaxDisk=400GB 

 NDI_-55_b3lyp.pdb

0  1
C           2.67000        -2.94000         0.57800
C           2.30900        -1.51700         0.33800
C           3.31600        -0.55400         0.09700
C           4.67500        -0.93000         0.07200
C           5.07200        -2.34300         0.32000
C           0.99000        -1.14000         0.36500
C           2.93200         0.79500        -0.13700
C           1.55800         1.17900        -0.09500
C           0.57000         0.21000         0.18700
C           1.22100         2.59500        -0.40800
C           3.63500         3.14000        -0.73800
C           3.95900         1.72900        -0.42700
C           5.28900         1.33900        -0.44700
C           5.65400         0.01300        -0.19300
H           6.69200        -0.29600        -0.20700
H           6.03700         2.08900        -0.67300
H           0.24900        -1.90100         0.57400
N           2.27700         3.46100        -0.75200
N           4.03300        -3.25800         0.55500
O           1.83900        -3.80400         0.78600
O           6.23600        -2.69600         0.31900
O           4.49300         3.97100        -0.97900
O           0.08900         3.04500        -0.39800
C           1.89200         4.84000        -1.08700
H           1.14300         4.82600        -1.87700
H           1.46200         5.33300        -0.21400
H           2.78600         5.36400        -1.40900
C           4.37700        -4.66600         0.79900
H           4.01000        -4.97000         1.78000
H           3.90400        -5.29600         0.04500
H           5.45700        -4.75900         0.75000
C          -0.87500         0.43900         0.29200
C          -1.57200         1.32300         1.08400
S          -1.96900        -0.69100        -0.48200
C          -2.96700         1.11600         1.05400
H          -1.09000         2.09900         1.65500
C          -3.37600         0.06500         0.23500
O          -3.90400         1.83500         1.72800
C          -4.71900        -0.35600        -0.05300
C          -3.47300         2.99500         2.43400
C          -5.12300        -1.42700        -0.84300
S          -6.13900         0.47000         0.57800
H          -4.37600         3.45300         2.83400
H          -2.80700         2.72800         3.26100
H          -2.96900         3.69800         1.76400
C          -6.53300        -1.58100        -0.93900
O          -4.18200        -2.20800        -1.43700
C          -7.20100        -0.62700        -0.22300
H          -7.02800        -2.35700        -1.50500
C          -4.62200        -3.31600        -2.21600
H          -8.26900        -0.51100        -0.11700
H          -5.22700        -2.98400        -3.06600
H          -3.71900        -3.80100        -2.58100
H          -5.19400        -4.02400        -1.60700

D 8 9 32 33 F

