%mem=480GB 
%nprocshared=40 
# mp2/aug-cc-pvdz MaxDisk=400GB 

 NDI_85_b3lyp.pdb

0  1
C          -3.10500        -2.86400         0.45900
C          -2.54300        -1.49500         0.30600
C          -3.39200        -0.40500         0.01500
C          -4.78400        -0.59700        -0.14000
C          -5.37800        -1.95400         0.00800
C          -1.18900        -1.29100         0.45400
C          -2.82900         0.89200        -0.12900
C          -1.42800         1.08600         0.02900
C          -0.60600        -0.00400         0.34100
C          -0.87100         2.46000        -0.16400
C          -3.16300         3.34500        -0.61100
C          -3.69500         1.97000        -0.43500
C          -5.05600         1.76000        -0.58200
C          -5.60400         0.47700        -0.43300
H          -6.66700         0.30800        -0.54800
H          -5.68500         2.60900        -0.81500
H          -0.55400        -2.13800         0.68200
N          -1.78000         3.48900        -0.47500
N          -4.48900        -3.00200         0.29700
O          -2.41500        -3.83300         0.71400
O          -6.57200        -2.15100        -0.11400
O          -3.88400         4.29200        -0.86500
O           0.31000         2.72600        -0.07600
C          -1.19400         4.82500        -0.66100
H          -0.69000         5.13900         0.25300
H          -0.45800         4.79400        -1.46500
H          -1.99900         5.51000        -0.90600
C          -5.03000        -4.36100         0.45100
H          -4.56100        -5.02600        -0.27400
H          -4.81100        -4.73200         1.45200
H          -6.10200        -4.31400         0.28800
C           0.85800         0.07700         0.55200
C           1.52500         0.39300         1.70300
S           1.94900        -0.45700        -0.69400
C           2.93200         0.24300         1.57800
H           1.02400         0.73500         2.59800
C           3.35200        -0.20900         0.33700
O           3.85600         0.48800         2.55000
C           4.70100        -0.43900        -0.11800
C           3.41000         1.09900         3.75500
C           5.11300        -0.91600        -1.35300
S           6.11200        -0.12000         0.88200
H           4.30400         1.26000         4.35700
H           2.92600         2.06100         3.55500
H           2.72200         0.44500         4.30100
C           6.52500        -1.02200        -1.49800
O           4.17800        -1.23200        -2.29400
C           7.18700        -0.62600        -0.37000
H           7.02500        -1.37500        -2.38900
C           4.63300        -1.71800        -3.55100
H           8.25200        -0.60700        -0.20100
H           5.19300        -2.65200        -3.43500
H           3.73700        -1.90500        -4.14100
H           5.25500        -0.97500        -4.06100

D 8 9 32 33 F

