%mem=480GB 
%nprocshared=40 
# mp2/aug-cc-pvdz MaxDisk=400GB 

 NDI_-115_b3lyp.pdb

0  1
C          -3.49900        -2.72700         0.40200
C          -2.75700        -1.47000         0.12300
C          -3.43400        -0.23000         0.11700
C          -4.81800        -0.16200         0.38700
C          -5.58800        -1.40100         0.68400
C          -1.40000        -1.51300        -0.10400
C          -2.70300         0.95400        -0.17500
C          -1.30900         0.88700        -0.44900
C          -0.64100        -0.34200        -0.36000
C          -0.62200         2.12700        -0.91700
C          -2.68600         3.45700        -0.47700
C          -3.39800         2.18900        -0.17900
C          -4.75500         2.23300         0.09700
C          -5.46800         1.06000         0.37900
H          -6.53000         1.09000         0.59100
H          -5.25000         3.19600         0.09000
H          -0.89200        -2.46800        -0.05500
N          -1.33600         3.33600        -0.81800
N          -4.86900        -2.60700         0.66700
O          -2.96500        -3.82000         0.40400
O          -6.78000        -1.37700         0.92600
O          -3.24300         4.53900        -0.44400
O           0.49600         2.13800        -1.39000
C          -0.60600         4.55000        -1.21200
H           0.35500         4.57300        -0.70100
H          -0.42500         4.54800        -2.28800
H          -1.21300         5.40700        -0.93800
C          -5.58900        -3.85800         0.94700
H          -5.50500        -4.53000         0.09200
H          -5.15000        -4.34900         1.81500
H          -6.62900        -3.61000         1.13500
C           0.81500        -0.52500        -0.49900
C           1.47400        -1.21200        -1.48600
S           1.92000         0.11100         0.68500
C           2.88100        -1.20800        -1.30700
H           0.96600        -1.66900        -2.32200
C           3.31100        -0.54000        -0.16700
O           3.80000        -1.78800        -2.12700
C           4.65900        -0.39500         0.32000
C           3.32700        -2.49000        -3.27100
C           5.08500         0.27200         1.46000
S           6.05200        -1.08000        -0.50800
H           4.21300        -2.87800        -3.77100
H           2.67800        -3.32400        -2.98300
H           2.79000        -1.82100        -3.95100
C           6.49200         0.23900         1.66500
O           4.16500         0.87600         2.26300
C           7.13700        -0.45600         0.68000
H           7.00100         0.70500         2.49600
C           4.63800         1.60200         3.39200
H           8.19700        -0.63500         0.58400
H           5.30000         2.41900         3.08800
H           3.75300         2.01400         3.87400
H           5.16100         0.94400         4.09500

D 8 9 32 33 F

