%mem=480GB 
%nprocshared=40 
# mp2/aug-cc-pvdz MaxDisk=400GB 

 NDI_115_b3lyp.pdb

0  1
C           3.50200        -2.72600         0.40200
C           2.75800        -1.47000         0.12300
C           3.43400        -0.22900         0.11600
C           4.81800        -0.16000         0.38700
C           5.59000        -1.39800         0.68200
C           1.40100        -1.51400        -0.10400
C           2.70200         0.95400        -0.17500
C           1.30800         0.88600        -0.44900
C           0.64100        -0.34400        -0.36100
C           0.62000         2.12500        -0.91700
C           2.68200         3.45700        -0.47600
C           3.39600         2.18900        -0.17900
C           4.75200         2.23500         0.09600
C           5.46700         1.06200         0.37800
H           6.52900         1.09400         0.58900
H           5.24700         3.19900         0.09000
H           0.89500        -2.47000        -0.05600
N           1.33200         3.33500        -0.81400
N           4.87200        -2.60500         0.66700
O           2.96900        -3.82000         0.40500
O           6.78200        -1.37400         0.92300
O           3.23800         4.54000        -0.44400
O          -0.49700         2.13500        -1.39300
C           0.60100         4.54900        -1.20700
H           0.43500         4.55800        -2.28600
H          -0.36800         4.56100        -0.71000
H           1.19900         5.40700        -0.91600
C           5.59300        -3.85500         0.94700
H           5.15000        -4.34900         1.81200
H           5.51500        -4.52500         0.09000
H           6.63100        -3.60600         1.14100
C          -0.81400        -0.52800        -0.49900
C          -1.47400        -1.21500        -1.48500
S          -1.91900         0.10900         0.68500
C          -2.88100        -1.21000        -1.30600
H          -0.96600        -1.67200        -2.32200
C          -3.31000        -0.54200        -0.16700
O          -3.80000        -1.79200        -2.12500
C          -4.65800        -0.39700         0.32000
C          -3.32900        -2.47700        -3.28000
C          -5.08400         0.27100         1.46100
S          -6.05200        -1.07900        -0.50800
H          -4.21500        -2.86100        -3.78100
H          -2.79600        -1.79700        -3.95200
H          -2.67600        -3.31200        -3.00500
C          -6.49100         0.24000         1.66500
O          -4.16400         0.87400         2.26400
C          -7.13600        -0.45400         0.68000
H          -7.00000         0.70600         2.49600
C          -4.63500         1.59100         3.40000
H          -8.19600        -0.63200         0.58400
H          -5.15600         0.92700         4.09800
H          -3.75000         2.00000         3.88400
H          -5.29900         2.40900         3.10300

D 8 9 32 33 F

