%mem=480GB 
%nprocshared=40 
# mp2/aug-cc-pvdz MaxDisk=400GB 

 NDI_-85_b3lyp.pdb

0  1
C           3.10500        -2.86400         0.45900
C           2.54300        -1.49500         0.30600
C           3.39200        -0.40500         0.01500
C           4.78400        -0.59700        -0.14000
C           5.37800        -1.95400         0.00800
C           1.18900        -1.29100         0.45500
C           2.82900         0.89200        -0.12900
C           1.42800         1.08600         0.02900
C           0.60600        -0.00400         0.34100
C           0.87100         2.46000        -0.16400
C           3.16200         3.34500        -0.61100
C           3.69500         1.97000        -0.43500
C           5.05500         1.76000        -0.58200
C           5.60400         0.47700        -0.43300
H           6.66700         0.30900        -0.54800
H           5.68500         2.60900        -0.81600
H           0.55500        -2.13800         0.68200
N           1.78000         3.48900        -0.47500
N           4.49000        -3.00100         0.29800
O           2.41500        -3.83300         0.71300
O           6.57200        -2.15100        -0.11500
O           3.88400         4.29200        -0.86500
O          -0.31000         2.72600        -0.07400
C           1.19300         4.82500        -0.66200
H           0.45300         4.79200        -1.46200
H           0.69500         5.14200         0.25400
H           1.99800         5.50900        -0.91200
C           5.03000        -4.36000         0.45200
H           4.80500        -4.73500         1.45000
H           4.56700        -5.02500        -0.27800
H           6.10300        -4.31300         0.29600
C          -0.85800         0.07600         0.55200
C          -1.52500         0.39200         1.70400
S          -1.94900        -0.45600        -0.69400
C          -2.93200         0.24200         1.57900
H          -1.02400         0.73400         2.59800
C          -3.35200        -0.20800         0.33700
O          -3.85600         0.48700         2.55000
C          -4.70100        -0.43800        -0.11800
C          -3.41100         1.09700         3.75600
C          -5.11300        -0.91500        -1.35400
S          -6.11200        -0.11900         0.88200
H          -4.30400         1.25800         4.35700
H          -2.72200         0.44300         4.30100
H          -2.92600         2.05900         3.55600
C          -6.52500        -1.02100        -1.49900
O          -4.17800        -1.23100        -2.29400
C          -7.18700        -0.62500        -0.37100
H          -7.02500        -1.37400        -2.38900
C          -4.63300        -1.72100        -3.55000
H          -8.25200        -0.60600        -0.20200
H          -5.25600        -0.98000        -4.06200
H          -3.73700        -1.90900        -4.14000
H          -5.19200        -2.65500        -3.43200

D 8 9 32 33 F

