%mem=480GB 
%nprocshared=40 
# mp2/aug-cc-pvdz MaxDisk=400GB 

 NDI_-65_b3lyp.pdb

0  1
C           2.73000        -2.90800         0.65500
C           2.33900        -1.49600         0.39800
C           3.32300        -0.52600         0.09800
C           4.68600        -0.88400         0.02600
C           5.11200        -2.28500         0.28900
C           1.01500        -1.13700         0.45600
C           2.91400         0.81400        -0.14700
C           1.53900         1.17900        -0.05900
C           0.57600         0.20400         0.26500
C           1.17000         2.59500        -0.34300
C           3.55300         3.15500        -0.82700
C           3.91300         1.75600        -0.50000
C           5.24600         1.38300        -0.56800
C           5.63900         0.06600        -0.29900
H           6.67900        -0.22900        -0.35000
H           5.97500         2.13500        -0.84300
H           0.28700        -1.90100         0.69500
N           2.19200         3.46200        -0.77400
N           4.09600        -3.20800         0.58500
O           1.92000        -3.77800         0.91600
O           6.28000        -2.62300         0.25000
O           4.38600         3.99000        -1.13300
O           0.04200         3.03700        -0.23500
C           1.77600         4.83400        -1.09800
H           0.94600         4.80300        -1.80200
H           1.44500         5.35200        -0.19700
H           2.63100         5.34700        -1.52800
C           4.46800        -4.60600         0.84700
H           4.15300        -4.88900         1.85100
H           3.96800        -5.25900         0.13200
H           5.54600        -4.68800         0.74900
C          -0.87600         0.41900         0.36900
C          -1.58300         1.19200         1.25900
S          -1.94800        -0.63200        -0.53000
C          -2.97700         0.97400         1.19700
H          -1.10900         1.90200         1.91800
C          -3.36900         0.01900         0.26300
O          -3.92500         1.60000         1.94500
C          -4.70600        -0.38100        -0.08400
C          -3.51300         2.68700         2.76900
C          -5.09300        -1.36100        -0.99000
S          -6.14000         0.35700         0.62100
H          -4.42300         3.08600         3.21400
H          -2.84100         2.34700         3.56400
H          -3.02100         3.46500         2.17700
C          -6.50100        -1.51600        -1.11700
O          -4.13900        -2.06300        -1.65900
C          -7.18500        -0.65400        -0.30600
H          -6.98300        -2.22900        -1.77000
C          -4.56200        -3.08100        -2.56000
H          -8.25500        -0.56000        -0.19700
H          -5.16400        -2.66300        -3.37300
H          -3.65200        -3.51500        -2.96900
H          -5.13200        -3.85700        -2.03800

D 8 9 32 33 F

