%mem=480GB 
%nprocshared=40 
# mp2/aug-cc-pvdz MaxDisk=400GB 

 NDI_105_b3lyp.pdb

0  1
C           3.42800        -2.78200         0.23200
C           2.71900        -1.48900         0.03800
C           3.43000        -0.27100         0.09800
C           4.82000        -0.25900         0.35200
C           5.55800        -1.53500         0.55900
C           1.36000        -1.48000        -0.18500
C           2.73100         0.95000        -0.10600
C           1.33200         0.93900        -0.36400
C           0.63500        -0.27500        -0.36800
C           0.65900         2.23400        -0.68500
C           2.78200         3.46800        -0.24300
C           3.46100         2.16200        -0.04100
C           4.82200         2.15000         0.21400
C           5.50500         0.94100         0.40900
H           6.57000         0.92800         0.60600
H           5.34500         3.09700         0.25900
H           0.82600        -2.42200        -0.20200
N           1.41900         3.41000        -0.54000
N           4.80400        -2.71700         0.48300
O           2.86100        -3.85700         0.17800
O           6.75400        -1.56000         0.78200
O           3.37700         4.52700        -0.16300
O          -0.48900         2.31700        -1.07000
C           0.70900         4.67000        -0.80800
H           0.43900         4.73100        -1.86300
H          -0.20500         4.70300        -0.21600
H           1.37200         5.48800        -0.54300
C           5.49000        -4.00300         0.67700
H           5.04200        -4.53500         1.51600
H           5.38300        -4.61700        -0.21700
H           6.53800        -3.79700         0.87300
C          -0.82600        -0.41100        -0.55000
C          -1.49000        -0.84200        -1.66700
S          -1.92300        -0.05000         0.74900
C          -2.89900        -0.86400        -1.48900
H          -0.98600        -1.10100        -2.58700
C          -3.32300        -0.47000        -0.22800
O          -3.82200        -1.23700        -2.41900
C          -4.67100        -0.41800         0.28000
C          -3.35700        -1.62000        -3.70700
C          -5.08900        -0.02500         1.54400
S          -6.07200        -0.86600        -0.68300
H          -4.24500        -1.86800        -4.28500
H          -2.82400        -0.79700        -4.19600
H          -2.70500        -2.49800        -3.64800
C          -6.49800        -0.07900         1.73600
O          -4.16300         0.36200         2.46500
C          -7.15200        -0.51500         0.61700
H          -7.00300         0.19000         2.65300
C          -4.62700         0.79300         3.73900
H          -8.21400        -0.64900         0.48200
H          -5.15800        -0.01100         4.26000
H          -3.73700         1.06400         4.30600
H          -5.27900         1.66700         3.64700

D 8 9 32 33 F

