%mem=480GB 
%nprocshared=40 
# mp2/aug-cc-pvdz MaxDisk=400GB 

 NDI_-110_b3lyp.pdb

0  1
C          -3.47400        -2.75000         0.33600
C          -2.74300        -1.47900         0.09000
C          -3.43300        -0.24600         0.10900
C          -4.82000        -0.20000         0.37200
C          -5.57900        -1.45300         0.63400
C          -1.38500        -1.50200        -0.13600
C          -2.71400         0.95300        -0.14800
C          -1.31700         0.90700        -0.41600
C          -0.63900        -0.31800        -0.36400
C          -0.63300         2.17000        -0.82300
C          -2.72100         3.46300        -0.38400
C          -3.42200         2.17900        -0.12500
C          -4.78000         2.20300         0.14200
C          -5.48300         1.01500         0.38900
H          -6.54600         1.02900         0.59500
H          -5.28600         3.16000         0.15500
H          -0.86800        -2.45300        -0.11400
N          -1.36400         3.36700        -0.70500
N          -4.84700        -2.65100         0.59500
O          -2.92700        -3.83700         0.31700
O          -6.77300        -1.44800         0.86700
O          -3.29200         4.53700        -0.33400
O           0.49900         2.21000        -1.25900
C          -0.64000         4.60100        -1.04600
H           0.30600         4.62300        -0.50700
H          -0.42800         4.62900        -2.11600
H          -1.26600         5.44200        -0.76700
C          -5.55500        -3.91600         0.84200
H          -5.46300        -4.56500        -0.02900
H          -5.11100        -4.42400         1.69800
H          -6.59700        -3.68300         1.03500
C           0.81900        -0.48400        -0.52300
C           1.48200        -1.05500        -1.57700
S           1.91900         0.03300         0.72200
C           2.89100        -1.05900        -1.39700
H           0.97700        -1.42400        -2.45800
C           3.31500        -0.51200        -0.19400
O           3.81300        -1.54600        -2.27300
C           4.66300        -0.40700         0.30600
C           3.34600        -2.09600        -3.49900
C           5.08300         0.13900         1.51000
S           6.06200        -0.98200        -0.59100
H           4.23400        -2.41800        -4.04000
H           2.69500        -2.95900        -3.32400
H           2.81300        -1.34500        -4.09100
C           6.49200         0.10000         1.71000
O           4.15900         0.64500         2.37400
C           7.14300        -0.47700         0.65600
H           6.99700         0.48000         2.58600
C           4.62500         1.23500         3.58200
H           8.20400        -0.63400         0.54100
H           5.28200         2.08600         3.37900
H           3.73600         1.58100         4.10800
H           5.15100         0.50200         4.20300

D 8 9 32 33 F

