%mem=480GB 
%nprocshared=40 
# mp2/aug-cc-pvdz MaxDisk=400GB 

 NDI_125_b3lyp.pdb

0  1
C           3.52500        -2.70100         0.44800
C           2.77000        -1.45700         0.14300
C           3.43200        -0.20900         0.12300
C           4.81200        -0.11900         0.40700
C           5.59400        -1.34300         0.73100
C           1.41500        -1.52100        -0.08800
C           2.69000         0.96000        -0.19800
C           1.29900         0.87100        -0.48400
C           0.64100        -0.36300        -0.36700
C           0.61700         2.08400        -1.02000
C           2.64500         3.45500        -0.54900
C           3.37000         2.20300        -0.21700
C           4.72300         2.27000         0.07400
C           5.44800         1.11100         0.38400
H           6.50600         1.15800         0.60700
H           5.20500         3.23900         0.05600
H           0.92000        -2.48100        -0.01700
N           1.30600         3.30800        -0.91900
N           4.89100        -2.55900         0.72500
O           3.00500        -3.80100         0.46200
O           6.78300        -1.30100         0.98600
O           3.18400         4.54700        -0.52200
O          -0.47500         2.06200        -1.55300
C           0.57400         4.50100        -1.36800
H           0.47400         4.49800        -2.45500
H          -0.42200         4.49500        -0.93000
H           1.13500         5.37500        -1.05100
C           5.62400        -3.79600         1.03200
H           5.17900        -4.28100         1.90100
H           5.56000        -4.48100         0.18600
H           6.65700        -3.53100         1.23100
C          -0.80900        -0.56700        -0.47600
C          -1.45900        -1.42900        -1.32700
S          -1.92800         0.23500         0.59000
C          -2.86300        -1.42200        -1.14600
H          -0.94200        -2.01400        -2.07400
C          -3.30400        -0.58000        -0.13100
O          -3.77200        -2.14800        -1.85200
C          -4.65400        -0.38400         0.32900
C          -3.28800        -3.02100        -2.86700
C          -5.09200         0.45500         1.34600
S          -6.03400        -1.22100        -0.36900
H          -4.16800        -3.50200        -3.29200
H          -2.76400        -2.46400        -3.65000
H          -2.62400        -3.78400        -2.44800
C          -6.49800         0.43000         1.55900
O          -4.18500         1.20000         2.03500
C          -7.12900        -0.43100         0.70400
H          -7.01600         1.01500         2.30400
C          -4.66800         2.08900         3.03500
H          -8.18500        -0.64400         0.64400
H          -5.17600         1.54300         3.83700
H          -3.79100         2.59000         3.44000
H          -5.34800         2.83300         2.60700

D 8 9 32 33 F

