%mem=480GB 
%nprocshared=40 
# mp2/aug-cc-pvdz MaxDisk=400GB 

 NDI_-75_b3lyp.pdb

0  1
C           2.93700        -2.88400         0.59000
C           2.45100        -1.49700         0.36000
C           3.36500        -0.46300         0.05900
C           4.74900        -0.72900        -0.03200
C           5.26900        -2.10400         0.20000
C           1.10700        -1.22100         0.45300
C           2.87100         0.85200        -0.16500
C           1.47700         1.12100        -0.06800
C           0.59100         0.09000         0.27700
C           0.99600         2.50000        -0.38100
C           3.34600         3.25500        -0.76200
C           3.80200         1.86900        -0.49100
C           5.15500         1.58600        -0.57400
C           5.63300         0.28900        -0.34200
H           6.69000         0.06400        -0.40700
H           5.83400         2.39200        -0.82400
H           0.42600        -2.02700         0.69700
N           1.96600         3.46600        -0.70900
N           4.31800        -3.09500         0.49400
O           2.19000        -3.80700         0.85200
O           6.45500        -2.36400         0.13700
O           4.12300         4.15500        -1.02500
O          -0.17500         2.82400        -0.38100
C           1.45300         4.81000        -1.01200
H           0.75300         4.75700        -1.84600
H           0.92500         5.21000        -0.14600
H           2.30100         5.44000        -1.26400
C           4.78400        -4.47000         0.72600
H           4.50100        -4.79000         1.72900
H           4.31700        -5.14200         0.00600
H           5.86300        -4.48000         0.61400
C          -0.86600         0.24900         0.45300
C          -1.53600         0.82400         1.50000
S          -1.96000        -0.57500        -0.62400
C          -2.94000         0.64000         1.42100
H          -1.03600         1.36700         2.28800
C          -3.36100        -0.09300         0.32000
O          -3.86300         1.10200         2.30900
C          -4.71000        -0.41200        -0.07100
C          -3.42300         2.00100         3.32100
C          -5.12400        -1.17500        -1.15500
S          -6.12100         0.16000         0.81000
H          -4.31800         2.30000         3.86500
H          -2.72900         1.51100         4.01200
H          -2.94800         2.88500         2.88300
C          -6.53600        -1.29800        -1.27800
O          -4.19000        -1.72100        -1.98200
C          -7.19600        -0.62800        -0.28600
H          -7.03700        -1.85400        -2.05600
C          -4.64400        -2.51000        -3.07600
H          -8.26200        -0.55800        -0.13300
H          -5.25900        -1.91800        -3.76100
H          -3.74700        -2.84700        -3.59400
H          -5.21100        -3.38000        -2.72800

D 8 9 32 33 F

