%mem=480GB 
%nprocshared=40 
# mp2/aug-cc-pvdz MaxDisk=400GB 

 NDI_-70_b3lyp.pdb

0  1
C           2.83900        -2.89800         0.62100
C           2.39900        -1.49900         0.37400
C           3.34600        -0.49400         0.07800
C           4.72300        -0.80200         0.00700
C           5.19800        -2.18900         0.25900
C           1.06200        -1.18500         0.44400
C           2.89300         0.83200        -0.16200
C           1.50500         1.14500        -0.08200
C           0.58300         0.14000         0.25700
C           1.07400         2.53600        -0.40500
C           3.44700         3.20900        -0.79300
C           3.85800         1.81600        -0.49300
C           5.20300         1.49300        -0.55700
C           5.64100         0.18600        -0.30300
H           6.69100        -0.07100        -0.35300
H           5.90700         2.27500        -0.81200
H           0.35800        -1.97100         0.68600
N           2.07400         3.46100        -0.76100
N           4.21500        -3.14900         0.54700
O           2.06200        -3.79700         0.87800
O           6.37800        -2.48400         0.21600
O           4.25300         4.08200        -1.06400
O          -0.08400         2.90700        -0.39100
C           1.60600         4.81600        -1.08800
H           0.87000         4.76400        -1.89000
H           1.13200         5.26800        -0.21600
H           2.46800         5.40000        -1.39300
C           4.63700        -4.53500         0.79700
H           4.33400        -4.83700         1.80000
H           4.15900        -5.20000         0.07700
H           5.71700        -4.57900         0.69800
C          -0.87000         0.33000         0.40300
C          -1.55200         1.00900         1.38100
S          -1.95900        -0.61100        -0.58400
C          -2.95100         0.81100         1.31700
H          -1.05900         1.63800         2.10800
C          -3.36500        -0.03700         0.29700
O          -3.88100         1.36000         2.14600
C          -4.71100        -0.39500        -0.06700
C          -3.45000         2.36200         3.06200
C          -5.11800        -1.27200        -1.06400
S          -6.12800         0.27100         0.73500
H          -4.34900         2.71400         3.56400
H          -2.76000         1.94700         3.80400
H          -2.97100         3.19500         2.53600
C          -6.52900        -1.40700        -1.18300
O          -4.17900        -1.90500        -1.81900
C          -7.19500        -0.63100        -0.27600
H          -7.02500        -2.04500        -1.90000
C          -4.62400        -2.81500        -2.81900
H          -8.26200        -0.54500        -0.14000
H          -5.23500        -2.30600        -3.57200
H          -3.72400        -3.20700        -3.28900
H          -5.19300        -3.64000        -2.37700

D 8 9 32 33 F

