%mem=480GB 
%nprocshared=40 
# mp2/aug-cc-pvdz MaxDisk=400GB 

 NDI_-100_b3lyp.pdb

0  1
C           3.36600        -2.81500        -0.07200
C           2.68500        -1.49800         0.04300
C           3.42500        -0.30200        -0.07800
C           4.81700        -0.33600        -0.32000
C           5.52700        -1.63800        -0.44800
C           1.32600        -1.44600         0.26000
C           2.75200         0.94400         0.04800
C           1.35100         0.98000         0.29300
C           0.62900        -0.21700         0.37600
C           0.69600         2.30800         0.49500
C           2.86000         3.46400         0.03800
C           3.51100         2.13400        -0.08000
C           4.87200         2.07700        -0.31900
C           5.53000         0.84300        -0.43900
H           6.59500         0.79500        -0.62500
H           5.41800         3.00800        -0.41400
H           0.77200        -2.37300         0.33300
N           1.49000         3.45600         0.31000
N           4.74600        -2.79600        -0.31300
O           2.77400        -3.87200         0.03500
O           6.72400        -1.70200        -0.65700
O           3.48300         4.50300        -0.08700
O          -0.46700         2.44200         0.81400
C           0.80200         4.74500         0.47600
H          -0.06700         4.78000        -0.18100
H           0.46000         4.85500         1.50600
H           1.50600         5.53200         0.22600
C           5.40300        -4.10600        -0.42900
H           5.26600        -4.66900         0.49500
H           4.95600        -4.67100        -1.24700
H           6.45900        -3.93500        -0.61600
C          -0.83500        -0.31000         0.58000
C          -1.49900        -0.56600         1.74800
S          -1.92900        -0.15200        -0.76100
C          -2.91000        -0.61600         1.57200
H          -0.99700        -0.68500         2.69700
C          -3.33100        -0.41700         0.26700
O          -3.83300        -0.84400         2.54700
C          -4.67900        -0.43100        -0.24600
C          -3.37200        -1.00200         3.88300
C          -5.09400        -0.23700        -1.55500
S          -6.08400        -0.70700         0.77500
H          -4.26200        -1.15500         4.49100
H          -2.71500        -1.87400         3.97500
H          -2.84600        -0.10500         4.22800
C          -6.50400        -0.30700        -1.73800
O          -4.16400        -0.00800        -2.52500
C          -7.16100        -0.55400        -0.56500
H          -7.00600        -0.18000        -2.68600
C          -4.62400         0.21400        -3.85200
H          -8.22400        -0.65600        -0.41200
H          -5.27000         1.09700        -3.90400
H          -3.73300         0.38300        -4.45400
H          -5.16200        -0.65900        -4.23700

D 8 9 32 33 F

