%mem=480GB 
%nprocshared=40 
# mp2/aug-cc-pvdz MaxDisk=400GB 

 NDI_35_b3lyp.pdb

0  1
C          -2.61300        -2.99600         0.36400
C          -2.28100        -1.55800         0.18900
C          -3.30900        -0.59300         0.07900
C          -4.66300        -0.98000         0.14200
C          -5.03100        -2.40900         0.32900
C          -0.96800        -1.16800         0.16700
C          -2.94900         0.77100        -0.10900
C          -1.57600         1.16400        -0.16200
C          -0.56100         0.19300         0.03100
C          -1.28300         2.57300        -0.54100
C          -3.71300         3.14400        -0.47200
C          -4.00100         1.71100        -0.24000
C          -5.32800         1.31200        -0.16500
C          -5.66600        -0.03100         0.02600
H          -6.70000        -0.34700         0.07900
H          -6.09500         2.07000        -0.26500
H          -0.21900        -1.93600         0.30600
N          -2.36600         3.46900        -0.63500
N          -3.97100        -3.32700         0.42200
O          -1.76300        -3.86300         0.45400
O          -6.18900        -2.77400         0.39700
O          -4.59000         3.98800        -0.54000
O          -0.16900         2.99800        -0.79300
C          -2.02300         4.85700        -0.97400
H          -1.33300         5.26000        -0.23200
H          -1.53400         4.89000        -1.94800
H          -2.94300         5.43100        -0.98800
C          -4.28800        -4.75200         0.59900
H          -3.86700        -5.32700        -0.22500
H          -3.85100        -5.11300         1.53000
H          -5.36900        -4.85300         0.62200
C           0.87100         0.43600         0.17000
C           1.54800         1.48000         0.76600
S           2.00600        -0.79000        -0.37800
C           2.94200         1.30500         0.78500
H           1.05000         2.34400         1.17400
C           3.38400         0.12100         0.18800
O           3.85800         2.16000         1.31100
C           4.73800        -0.32100         0.01300
C           3.39400         3.41800         1.79600
C           5.17400        -1.51100        -0.56200
S           6.13200         0.62600         0.52000
H           4.28400         3.96400         2.10400
H           2.87300         3.97300         1.01000
H           2.73200         3.28600         2.65900
C           6.58800        -1.65800        -0.59500
O           4.25900        -2.39800        -1.02800
C           7.22600        -0.58000        -0.04600
H           7.10600        -2.51400        -1.00200
C           4.72900        -3.62100        -1.59000
H           8.28900        -0.42900         0.06200
H           5.29300        -4.20100        -0.85300
H           3.83900        -4.17500        -1.88300
H           5.35000        -3.43500        -2.47200

D 8 9 32 33 F

