%mem=480GB 
%nprocshared=40 
# mp2/aug-cc-pvdz MaxDisk=400GB 

 NDI_-135_b3lyp.pdb

0  1
C          -3.52200        -2.69500         0.42800
C          -2.76800        -1.45100         0.12500
C          -3.42800        -0.20000         0.12400
C          -4.80300        -0.10900         0.42500
C          -5.58400        -1.33400         0.74900
C          -1.41700        -1.51500        -0.11700
C          -2.68500         0.96900        -0.19700
C          -1.29800         0.87900        -0.50100
C          -0.63800        -0.35800        -0.39400
C          -0.63000         2.08800        -1.06000
C          -2.64100         3.46500        -0.53400
C          -3.36300         2.21300        -0.20000
C          -4.71200         2.28100         0.11100
C          -5.43600         1.12300         0.42100
H          -6.49100         1.17100         0.65900
H          -5.19100         3.25200         0.10600
H          -0.92600        -2.47800        -0.05100
N          -1.31100         3.31400        -0.93600
N          -4.88400        -2.55200         0.72300
O          -3.00400        -3.79700         0.42600
O          -6.76900        -1.29300         1.01900
O          -3.17400         4.55900        -0.48700
O           0.44200         2.06200        -1.63100
C          -0.58800         4.50600        -1.40300
H           0.42200         4.49300        -0.99900
H          -0.52400         4.50800        -2.49300
H          -1.13400         5.38100        -1.06300
C          -5.61600        -3.79000         1.02700
H          -5.56100        -4.46900         0.17600
H          -5.16500        -4.28200         1.88900
H          -6.64800        -3.52500         1.23600
C           0.80900        -0.57000        -0.48600
C           1.44500        -1.56000        -1.20400
S           1.94300         0.33700         0.47400
C           2.84500        -1.56400        -1.01300
H           0.91900        -2.23100        -1.86700
C           3.30100        -0.60400        -0.11300
O           3.74100        -2.39800        -1.60600
C           4.65100        -0.37900         0.32600
C           3.24200        -3.39200        -2.49500
C           5.10500         0.57400         1.23000
S           6.01600        -1.33100        -0.24800
H           4.11200        -3.94500        -2.84400
H           2.55900        -4.07600        -1.98000
H           2.73300        -2.93600        -3.35100
C           6.50900         0.54600         1.45300
O           4.21200         1.42100         1.81000
C           7.12300        -0.43200         0.72100
H           7.03700         1.21200         2.12000
C           4.71100         2.42300         2.68900
H           8.17400        -0.67500         0.69700
H           5.40700         3.09100         2.17100
H           3.84200         2.99000         3.01900
H           5.20400         1.97600         3.55800

D 8 9 32 33 F

