%mem=10GB 
%nprocshared=8 
# opt=modredundant b3lyp/6-311+g(d,p) 

 NDI_65.pdb

-2  1
C          -2.56300        -2.99400        -0.40900
C          -2.25700        -1.55100        -0.22400
C          -3.30100        -0.60700        -0.08300
C          -4.65000        -1.02400        -0.11500
C          -4.99200        -2.45900        -0.30400
C          -0.94900        -1.13700        -0.21500
C          -2.96200         0.76400         0.10200
C          -1.59500         1.18800         0.12300
C          -0.56100         0.23200        -0.07200
C          -1.32800         2.61600         0.44600
C          -3.77700         3.11500         0.50800
C          -4.03500         1.67900         0.26800
C          -5.35600         1.25200         0.23000
C          -5.67200        -0.09800         0.03600
H          -6.69900        -0.44200         0.00800
H          -6.13300         1.99700         0.36100
H          -0.19000        -1.89500        -0.36900
N          -2.43200         3.47600         0.60800
N          -3.91600        -3.35300        -0.43800
O          -1.69500        -3.84700        -0.53200
O          -6.14900        -2.85000        -0.34000
O          -4.67600         3.93800         0.62900
O          -0.21200         3.09700         0.59600
C          -2.11100         4.87500         0.91200
H          -1.54000         4.93100         1.84000
H          -1.50000         5.29900         0.11100
H          -3.05000         5.41400         1.00300
C          -4.20600        -4.77900        -0.62500
H          -3.75900        -5.12600        -1.55900
H          -3.77500        -5.35500         0.19600
H          -5.28600        -4.89700        -0.64900
C           0.87600         0.48200        -0.17800
C           1.77900         0.97100         0.74600
S           1.65700         0.29700        -1.74900
C           3.06600         1.18800         0.21500
H           1.51800         1.15700         1.77500
C           3.19500         0.86500        -1.13900
O           4.14800         1.66600         0.88600
C           4.37800         0.93400        -1.94900
C           4.02100         1.84900         2.29300
C           4.49900         0.63300        -3.30500
S           5.94500         1.43600        -1.32100
H           5.00600         2.15500         2.64600
H           3.29200         2.63500         2.52700
H           3.72300         0.91800         2.78900
C           5.81400         0.80100        -3.82400
O           3.40400         0.21800        -3.99400
C           6.69100         1.23000        -2.86400
H           6.09500         0.61600        -4.85200
C           3.55100        -0.04700        -5.38400
H           7.74500         1.43900        -2.98300
H           4.26500        -0.86200        -5.56000
H           2.56500        -0.34700        -5.73900
H           3.87800         0.84700        -5.92800

D 8 9 32 33 F

