%mem=10GB 
%nprocshared=8 
# opt=modredundant b3lyp/6-311+g(d,p) 

 NDI_-120.pdb

-2  1
C          -2.56300        -2.99400        -0.40900
C          -2.25700        -1.55100        -0.22400
C          -3.30100        -0.60700        -0.08300
C          -4.65000        -1.02400        -0.11500
C          -4.99200        -2.45900        -0.30400
C          -0.94900        -1.13700        -0.21500
C          -2.96200         0.76400         0.10200
C          -1.59500         1.18800         0.12300
C          -0.56100         0.23200        -0.07200
C          -1.32800         2.61600         0.44600
C          -3.77700         3.11500         0.50800
C          -4.03500         1.67900         0.26800
C          -5.35600         1.25200         0.23000
C          -5.67200        -0.09800         0.03600
H          -6.69900        -0.44200         0.00800
H          -6.13300         1.99700         0.36100
H          -0.19000        -1.89500        -0.36900
N          -2.43200         3.47600         0.60800
N          -3.91600        -3.35300        -0.43800
O          -1.69500        -3.84700        -0.53200
O          -6.14900        -2.85000        -0.34000
O          -4.67600         3.93800         0.62900
O          -0.21200         3.09700         0.59600
C          -2.11100         4.87500         0.91200
H          -1.54000         4.93100         1.84000
H          -1.50000         5.29900         0.11100
H          -3.05000         5.41400         1.00300
C          -4.20600        -4.77900        -0.62500
H          -3.75900        -5.12600        -1.55900
H          -3.77500        -5.35500         0.19600
H          -5.28600        -4.89700        -0.64900
C           0.87600         0.48200        -0.17800
C           1.76600         0.21900        -1.20100
S           1.74000         1.08600         1.23600
C           3.10600         0.49700        -0.86600
H           1.45600        -0.15600        -2.16300
C           3.28800         0.99200         0.42900
O           4.19200         0.33000        -1.66800
C           4.51700         1.40600         1.04600
C           3.95700        -0.03900        -3.02400
C           4.69900         1.87700         2.34400
S           6.06800         1.38100         0.21100
H           4.93400        -0.04000        -3.50800
H           3.51700        -1.04100        -3.09200
H           3.29800         0.68300        -3.52300
C           6.04800         2.20900         2.66000
O           3.62500         1.98200         3.17000
C           6.88900         1.99000         1.60200
H           6.37700         2.58900         3.61700
C           3.84800         2.43300         4.50100
H           7.95700         2.15400         1.56700
H           4.25700         3.45100         4.51300
H           2.87400         2.42900         4.98800
H           4.52800         1.76200         5.04000

D 8 9 32 33 F

