%mem=10GB 
%nprocshared=8 
# opt=modredundant b3lyp/6-311+g(d,p) 

 NDI_15.pdb

-2  1
C          -2.56300        -2.99400        -0.40900
C          -2.25700        -1.55100        -0.22400
C          -3.30100        -0.60700        -0.08300
C          -4.65000        -1.02400        -0.11500
C          -4.99200        -2.45900        -0.30400
C          -0.94900        -1.13700        -0.21500
C          -2.96200         0.76400         0.10200
C          -1.59500         1.18800         0.12300
C          -0.56100         0.23200        -0.07200
C          -1.32800         2.61600         0.44600
C          -3.77700         3.11500         0.50800
C          -4.03500         1.67900         0.26800
C          -5.35600         1.25200         0.23000
C          -5.67200        -0.09800         0.03600
H          -6.69900        -0.44200         0.00800
H          -6.13300         1.99700         0.36100
H          -0.19000        -1.89500        -0.36900
N          -2.43200         3.47600         0.60800
N          -3.91600        -3.35300        -0.43800
O          -1.69500        -3.84700        -0.53200
O          -6.14900        -2.85000        -0.34000
O          -4.67600         3.93800         0.62900
O          -0.21200         3.09700         0.59600
C          -2.11100         4.87500         0.91200
H          -1.54000         4.93100         1.84000
H          -1.50000         5.29900         0.11100
H          -3.05000         5.41400         1.00300
C          -4.20600        -4.77900        -0.62500
H          -3.75900        -5.12600        -1.55900
H          -3.77500        -5.35500         0.19600
H          -5.28600        -4.89700        -0.64900
C           0.87600         0.48200        -0.17800
C           1.62600         1.59700         0.14300
S           1.89200        -0.72400        -0.96800
C           2.98000         1.49000        -0.22800
H           1.20800         2.45900         0.63800
C           3.31800         0.28000        -0.84300
O           3.94600         2.43000        -0.04400
C           4.61400        -0.14400        -1.29200
C           3.60200         3.58800         0.71200
C           4.94400        -1.34000        -1.92600
S           6.06600         0.83600        -1.10300
H           4.52100         4.16500         0.81200
H           2.84800         4.19100         0.19000
H           3.22600         3.31500         1.70500
C           6.32500        -1.46700        -2.24900
O           3.96800        -2.25400        -2.17100
C           7.04300        -0.36800        -1.86300
H           6.76200        -2.32500        -2.74200
C           4.33000        -3.45100        -2.85100
H           8.10400        -0.19800        -1.98700
H           5.05900        -4.03200        -2.27300
H           3.41100        -4.02600        -2.95700
H           4.74200        -3.23500        -3.84400

D 8 9 32 33 F

