%mem=10GB 
%nprocshared=8 
# opt=modredundant b3lyp/6-311+g(d,p) 

 NDI_-55.pdb

-2  1
C          -2.56300        -2.99400        -0.40900
C          -2.25700        -1.55100        -0.22400
C          -3.30100        -0.60700        -0.08300
C          -4.65000        -1.02400        -0.11500
C          -4.99200        -2.45900        -0.30400
C          -0.94900        -1.13700        -0.21500
C          -2.96200         0.76400         0.10200
C          -1.59500         1.18800         0.12300
C          -0.56100         0.23200        -0.07200
C          -1.32800         2.61600         0.44600
C          -3.77700         3.11500         0.50800
C          -4.03500         1.67900         0.26800
C          -5.35600         1.25200         0.23000
C          -5.67200        -0.09800         0.03600
H          -6.69900        -0.44200         0.00800
H          -6.13300         1.99700         0.36100
H          -0.19000        -1.89500        -0.36900
N          -2.43200         3.47600         0.60800
N          -3.91600        -3.35300        -0.43800
O          -1.69500        -3.84700        -0.53200
O          -6.14900        -2.85000        -0.34000
O          -4.67600         3.93800         0.62900
O          -0.21200         3.09700         0.59600
C          -2.11100         4.87500         0.91200
H          -1.54000         4.93100         1.84000
H          -1.50000         5.29900         0.11100
H          -3.05000         5.41400         1.00300
C          -4.20600        -4.77900        -0.62500
H          -3.75900        -5.12600        -1.55900
H          -3.77500        -5.35500         0.19600
H          -5.28600        -4.89700        -0.64900
C           0.87600         0.48200        -0.17800
C           1.59000         1.31200        -1.02100
S           1.98200        -0.49500         0.78800
C           2.98600         1.17600        -0.89500
H           1.11500         2.00200        -1.70000
C           3.39200         0.23700         0.05800
O           3.93100         1.85700        -1.59600
C           4.73400        -0.09600         0.44500
C           3.48700         2.90500        -2.45300
C           5.13700        -1.05000         1.37900
S           6.15500         0.69100        -0.23600
H           4.38900         3.36900        -2.85200
H           2.88500         2.51200        -3.28100
H           2.90200         3.64900        -1.89900
C           6.54900        -1.14400         1.54200
O           4.19600        -1.77800         2.03300
C           7.21700        -0.26500         0.73300
H           7.04200        -1.82700         2.22000
C           4.63900        -2.76800         2.95500
H           8.28600        -0.12800         0.65300
H           5.20700        -2.31900         3.77900
H           3.73900        -3.23700         3.34900
H           5.25700        -3.52600         2.45800

D 8 9 32 33 F

