%mem=100GB 
%nprocshared=16 
# opt=modredundant b3lyp/6-311+g(d,p) scrf=(pcm, solvent=water) 

 NDI_-80.pdb

-1  2
C          -2.56300        -2.99400        -0.40900
C          -2.25700        -1.55100        -0.22400
C          -3.30100        -0.60700        -0.08300
C          -4.65000        -1.02400        -0.11500
C          -4.99200        -2.45900        -0.30400
C          -0.94900        -1.13700        -0.21500
C          -2.96200         0.76400         0.10200
C          -1.59500         1.18800         0.12300
C          -0.56100         0.23200        -0.07200
C          -1.32800         2.61600         0.44600
C          -3.77700         3.11500         0.50800
C          -4.03500         1.67900         0.26800
C          -5.35600         1.25200         0.23000
C          -5.67200        -0.09800         0.03600
H          -6.69900        -0.44200         0.00800
H          -6.13300         1.99700         0.36100
H          -0.19000        -1.89500        -0.36900
N          -2.43200         3.47600         0.60800
N          -3.91600        -3.35300        -0.43800
O          -1.69500        -3.84700        -0.53200
O          -6.14900        -2.85000        -0.34000
O          -4.67600         3.93800         0.62900
O          -0.21200         3.09700         0.59600
C          -2.11100         4.87500         0.91200
H          -1.54000         4.93100         1.84000
H          -1.50000         5.29900         0.11100
H          -3.05000         5.41400         1.00300
C          -4.20600        -4.77900        -0.62500
H          -3.75900        -5.12600        -1.55900
H          -3.77500        -5.35500         0.19600
H          -5.28600        -4.89700        -0.64900
C           0.87600         0.48200        -0.17800
C           1.64100         0.92100        -1.24100
S           1.91700         0.04500         1.17700
C           3.02500         0.91400        -0.97900
H           1.21200         1.24500        -2.17500
C           3.36900         0.47400         0.30300
O           4.01300         1.28600        -1.83600
C           4.68100         0.39300         0.88100
C           3.62200         1.86300        -3.07900
C           5.02400        -0.06800         2.15100
S           6.13900         0.89200         0.02800
H           4.54600         2.16200        -3.57500
H           3.09300         1.13500        -3.70600
H           2.98400         2.74200        -2.92500
C           6.41900        -0.02100         2.43100
O           4.04400        -0.50300         2.98600
C           7.13600         0.47400         1.37500
H           6.86700        -0.33800         3.36300
C           4.42800        -1.00100         4.26300
H           8.20600         0.61600         1.31600
H           4.92200        -0.22400         4.86100
H           3.50600        -1.30500         4.75700
H           5.09500        -1.86700         4.16800

D 8 9 32 33 F

