%mem=100GB 
%nprocshared=16 
# opt=modredundant b3lyp/6-311+g(d,p) scrf=(pcm, solvent=water) 

 NDI_100.pdb

-1  2
C          -2.56300        -2.99400        -0.40900
C          -2.25700        -1.55100        -0.22400
C          -3.30100        -0.60700        -0.08300
C          -4.65000        -1.02400        -0.11500
C          -4.99200        -2.45900        -0.30400
C          -0.94900        -1.13700        -0.21500
C          -2.96200         0.76400         0.10200
C          -1.59500         1.18800         0.12300
C          -0.56100         0.23200        -0.07200
C          -1.32800         2.61600         0.44600
C          -3.77700         3.11500         0.50800
C          -4.03500         1.67900         0.26800
C          -5.35600         1.25200         0.23000
C          -5.67200        -0.09800         0.03600
H          -6.69900        -0.44200         0.00800
H          -6.13300         1.99700         0.36100
H          -0.19000        -1.89500        -0.36900
N          -2.43200         3.47600         0.60800
N          -3.91600        -3.35300        -0.43800
O          -1.69500        -3.84700        -0.53200
O          -6.14900        -2.85000        -0.34000
O          -4.67600         3.93800         0.62900
O          -0.21200         3.09700         0.59600
C          -2.11100         4.87500         0.91200
H          -1.54000         4.93100         1.84000
H          -1.50000         5.29900         0.11100
H          -3.05000         5.41400         1.00300
C          -4.20600        -4.77900        -0.62500
H          -3.75900        -5.12600        -1.55900
H          -3.77500        -5.35500         0.19600
H          -5.28600        -4.89700        -0.64900
C           0.87600         0.48200        -0.17800
C           1.88700         0.35200         0.75400
S           1.50500         1.21000        -1.65600
C           3.13600         0.81700         0.29800
H           1.72900        -0.07400         1.73200
C           3.12600         1.31600        -1.00900
O           4.30300         0.82000         0.99600
C           4.23800         1.81800        -1.76600
C           4.31000         0.17600         2.26700
C           4.22100         2.33600        -3.05900
S           5.88500         1.85900        -1.14200
H           5.34100         0.21700         2.61900
H           3.66200         0.69900         2.98100
H           3.98900        -0.87000         2.18400
C           5.49600         2.75300        -3.53700
O           3.04400         2.39500        -3.73600
C           6.48000         2.55400        -2.60600
H           5.67400         3.17900        -4.51400
C           3.05300         2.96100        -5.04200
H           7.53300         2.78200        -2.70300
H           3.68800         2.38200        -5.72300
H           2.02200         2.92600        -5.39200
H           3.39600         4.00300        -5.02100

D 8 9 32 33 F

