%mem=100GB 
%nprocshared=16 
# opt=modredundant b3lyp/6-311+g(d,p) scrf=(pcm, solvent=water) 

 NDI_-175.pdb

-1  2
C          -2.56300        -2.99400        -0.40900
C          -2.25700        -1.55100        -0.22400
C          -3.30100        -0.60700        -0.08300
C          -4.65000        -1.02400        -0.11500
C          -4.99200        -2.45900        -0.30400
C          -0.94900        -1.13700        -0.21500
C          -2.96200         0.76400         0.10200
C          -1.59500         1.18800         0.12300
C          -0.56100         0.23200        -0.07200
C          -1.32800         2.61600         0.44600
C          -3.77700         3.11500         0.50800
C          -4.03500         1.67900         0.26800
C          -5.35600         1.25200         0.23000
C          -5.67200        -0.09800         0.03600
H          -6.69900        -0.44200         0.00800
H          -6.13300         1.99700         0.36100
H          -0.19000        -1.89500        -0.36900
N          -2.43200         3.47600         0.60800
N          -3.91600        -3.35300        -0.43800
O          -1.69500        -3.84700        -0.53200
O          -6.14900        -2.85000        -0.34000
O          -4.67600         3.93800         0.62900
O          -0.21200         3.09700         0.59600
C          -2.11100         4.87500         0.91200
H          -1.54000         4.93100         1.84000
H          -1.50000         5.29900         0.11100
H          -3.05000         5.41400         1.00300
C          -4.20600        -4.77900        -0.62500
H          -3.75900        -5.12600        -1.55900
H          -3.77500        -5.35500         0.19600
H          -5.28600        -4.89700        -0.64900
C           0.87600         0.48200        -0.17800
C           1.92400        -0.37400        -0.45600
S           1.49400         2.08000         0.24200
C           3.19100         0.23200        -0.34200
H           1.77800        -1.40300        -0.74100
C           3.15600         1.58200         0.02300
O           4.39500        -0.36400        -0.55000
C           4.26600         2.47900         0.17700
C           4.39000        -1.69600        -1.05700
C           4.23000         3.81700         0.56300
S           5.93600         2.00000        -0.11300
H           5.43500        -1.95500        -1.22800
H           3.95600        -2.39500        -0.33300
H           3.83500        -1.75800        -2.00100
C           5.50900         4.44100         0.62400
O           3.03300         4.39800         0.83600
C           6.51500         3.57700         0.28400
H           5.67500         5.47200         0.90400
C           3.03100         5.75700         1.26200
H           7.57600         3.78400         0.24900
H           3.44400         6.41600         0.48800
H           1.98800         6.01600         1.43800
H           3.60000         5.88300         2.19000

D 8 9 32 33 F

