%mem=100GB 
%nprocshared=16 
# opt=modredundant b3lyp/6-311+g(d,p) scrf=(pcm, solvent=water) 

 NDI_160.pdb

-1  2
C          -2.56300        -2.99400        -0.40900
C          -2.25700        -1.55100        -0.22400
C          -3.30100        -0.60700        -0.08300
C          -4.65000        -1.02400        -0.11500
C          -4.99200        -2.45900        -0.30400
C          -0.94900        -1.13700        -0.21500
C          -2.96200         0.76400         0.10200
C          -1.59500         1.18800         0.12300
C          -0.56100         0.23200        -0.07200
C          -1.32800         2.61600         0.44600
C          -3.77700         3.11500         0.50800
C          -4.03500         1.67900         0.26800
C          -5.35600         1.25200         0.23000
C          -5.67200        -0.09800         0.03600
H          -6.69900        -0.44200         0.00800
H          -6.13300         1.99700         0.36100
H          -0.19000        -1.89500        -0.36900
N          -2.43200         3.47600         0.60800
N          -3.91600        -3.35300        -0.43800
O          -1.69500        -3.84700        -0.53200
O          -6.14900        -2.85000        -0.34000
O          -4.67600         3.93800         0.62900
O          -0.21200         3.09700         0.59600
C          -2.11100         4.87500         0.91200
H          -1.54000         4.93100         1.84000
H          -1.50000         5.29900         0.11100
H          -3.05000         5.41400         1.00300
C          -4.20600        -4.77900        -0.62500
H          -3.75900        -5.12600        -1.55900
H          -3.77500        -5.35500         0.19600
H          -5.28600        -4.89700        -0.64900
C           0.87600         0.48200        -0.17800
C           1.95600        -0.36200        -0.00500
S           1.43500         2.13700        -0.42200
C           3.20000         0.29500        -0.07100
H           1.84800        -1.42300         0.15600
C           3.11600         1.67100        -0.30500
O           4.42600        -0.27800         0.06800
C           4.19700         2.60100        -0.46500
C           4.48100        -1.69900         0.16200
C           4.11100         3.97700        -0.67500
S           5.89200         2.12300        -0.41900
H           5.53900        -1.95700         0.18400
H           4.00100        -2.05400         1.08200
H           4.00300        -2.17200        -0.70400
C           5.37200         4.62800        -0.79600
O           2.88700         4.56200        -0.74800
C           6.41400         3.74900        -0.67800
H           5.50000         5.68900        -0.96000
C           2.83200         5.97300        -0.92800
H           7.47100         3.97100        -0.72700
H           3.29500         6.27200        -1.87700
H           1.77400         6.23300        -0.94400
H           3.32400         6.49900        -0.10100

D 8 9 32 33 F

