%mem=100GB 
%nprocshared=16 
# opt=modredundant b3lyp/6-311+g(d,p) scrf=(pcm, solvent=water) 

 NDI_-10.pdb

-1  2
C          -2.56300        -2.99400        -0.40900
C          -2.25700        -1.55100        -0.22400
C          -3.30100        -0.60700        -0.08300
C          -4.65000        -1.02400        -0.11500
C          -4.99200        -2.45900        -0.30400
C          -0.94900        -1.13700        -0.21500
C          -2.96200         0.76400         0.10200
C          -1.59500         1.18800         0.12300
C          -0.56100         0.23200        -0.07200
C          -1.32800         2.61600         0.44600
C          -3.77700         3.11500         0.50800
C          -4.03500         1.67900         0.26800
C          -5.35600         1.25200         0.23000
C          -5.67200        -0.09800         0.03600
H          -6.69900        -0.44200         0.00800
H          -6.13300         1.99700         0.36100
H          -0.19000        -1.89500        -0.36900
N          -2.43200         3.47600         0.60800
N          -3.91600        -3.35300        -0.43800
O          -1.69500        -3.84700        -0.53200
O          -6.14900        -2.85000        -0.34000
O          -4.67600         3.93800         0.62900
O          -0.21200         3.09700         0.59600
C          -2.11100         4.87500         0.91200
H          -1.54000         4.93100         1.84000
H          -1.50000         5.29900         0.11100
H          -3.05000         5.41400         1.00300
C          -4.20600        -4.77900        -0.62500
H          -3.75900        -5.12600        -1.55900
H          -3.77500        -5.35500         0.19600
H          -5.28600        -4.89700        -0.64900
C           0.87600         0.48200        -0.17800
C           1.58100         1.66300        -0.30300
S           1.96900        -0.89400        -0.32600
C           2.96300         1.47500        -0.50600
H           1.11300         2.63200        -0.24000
C           3.36600         0.13700        -0.53700
O           3.89700         2.45000        -0.66600
C           4.69900        -0.37500        -0.68300
C           3.47600         3.80000        -0.48600
C           5.09600        -1.71000        -0.73800
S           6.11600         0.66100        -0.82300
H           4.37600         4.40900        -0.57500
H           2.75800         4.09800        -1.25900
H           3.02700         3.94700         0.50400
C           6.50000        -1.89500        -0.88700
O           4.15600        -2.68700        -0.64400
C           7.16900        -0.70200        -0.94700
H           6.98700        -2.85800        -0.94800
C           4.58800        -4.04000        -0.73800
H           8.23300        -0.55000        -1.06100
H           5.27800        -4.29500         0.07700
H           3.68900        -4.64900        -0.65400
H           5.07400        -4.23600        -1.70100

D 8 9 32 33 F

