%mem=10GB 
%nprocshared=8 
# opt=modredundant b3lyp/6-311+g(d,p) 

 pBTTT_145.pdb

0  1
C          -4.25000        -1.36000        -0.21000
C          -2.93000        -0.95000        -0.61000
C          -1.97000        -2.05000        -0.62000
C          -4.33000        -2.76000         0.10000
H          -5.10000        -0.70000        -0.14000
S          -2.80000        -3.56000        -0.11000
H          -5.23000        -3.27000         0.41000
C          -0.56000        -2.13000        -0.97000
S           0.57100        -3.21700        -0.10700
C           1.91500        -2.73000        -1.08200
C           1.54300        -1.76700        -2.08800
C           0.15000        -1.43500        -2.04600
H          -0.34100        -0.86300        -2.81700
S           2.59600        -1.80000        -3.46400
C           3.57000        -3.08000        -2.73800
C           3.06100        -3.49400        -1.45000
H           4.33400        -3.60900        -3.29000
H           3.34500        -4.43100        -0.98000
O          -2.40000         0.49000        -0.72000
H          -2.92000         1.52000        -0.76000

D 2 3 8 9 F

