%mem=10GB 
%nprocshared=8 
# opt=modredundant b3lyp/6-311+g(d,p) 

 pBTTT_-155.pdb

0  1
C          -4.25000        -1.36000        -0.21000
C          -2.93000        -0.95000        -0.61000
C          -1.97000        -2.05000        -0.62000
C          -4.33000        -2.76000         0.10000
H          -5.10000        -0.70000        -0.14000
S          -2.80000        -3.56000        -0.11000
H          -5.23000        -3.27000         0.41000
C          -0.56000        -2.13000        -0.97000
S           0.19700        -3.65900        -1.51100
C           1.74900        -2.91900        -1.70700
C           1.72900        -1.51200        -1.40000
C           0.43200        -1.05300        -1.00000
H           0.18600        -0.00800        -0.89000
S           2.96900        -0.62900        -2.22700
C           3.56200        -2.10500        -2.99400
C           2.78200        -3.26500        -2.62700
H           4.29700        -2.09000        -3.78600
H           2.81000        -4.19300        -3.19100
O          -2.40000         0.49000        -0.72000
H          -2.92000         1.52000        -0.76000

D 2 3 8 9 F

