%mem=10GB 
%nprocshared=8 
# opt=modredundant wb97xd/6-311+g(d,p) 

 NDI_-100.pdb

0  1
C          -2.56300        -2.99400        -0.40900
C          -2.25700        -1.55100        -0.22400
C          -3.30100        -0.60700        -0.08300
C          -4.65000        -1.02400        -0.11500
C          -4.99200        -2.45900        -0.30400
C          -0.94900        -1.13700        -0.21500
C          -2.96200         0.76400         0.10200
C          -1.59500         1.18800         0.12300
C          -0.56100         0.23200        -0.07200
C          -1.32800         2.61600         0.44600
C          -3.77700         3.11500         0.50800
C          -4.03500         1.67900         0.26800
C          -5.35600         1.25200         0.23000
C          -5.67200        -0.09800         0.03600
H          -6.69900        -0.44200         0.00800
H          -6.13300         1.99700         0.36100
H          -0.19000        -1.89500        -0.36900
N          -2.43200         3.47600         0.60800
N          -3.91600        -3.35300        -0.43800
O          -1.69500        -3.84700        -0.53200
O          -6.14900        -2.85000        -0.34000
O          -4.67600         3.93800         0.62900
O          -0.21200         3.09700         0.59600
C          -2.11100         4.87500         0.91200
H          -1.54000         4.93100         1.84000
H          -1.50000         5.29900         0.11100
H          -3.05000         5.41400         1.00300
C          -4.20600        -4.77900        -0.62500
H          -3.75900        -5.12600        -1.55900
H          -3.77500        -5.35500         0.19600
H          -5.28600        -4.89700        -0.64900
C           0.87600         0.48200        -0.17800
C           1.70000         0.56500        -1.28400
S           1.83600         0.56100         1.30000
C           3.06500         0.69500        -0.96000
H           1.32500         0.54200        -2.29400
C           3.33400         0.72200         0.41200
O           4.09900         0.79300        -1.83800
C           4.60800         0.88600         1.05300
C           3.77800         0.90600        -3.22200
C           4.87700         0.89000         2.42100
S           6.10900         1.12100         0.16300
H           4.72600         1.05300        -3.73800
H           3.30000        -0.00900        -3.59400
H           3.11900         1.76200        -3.40700
C           6.25100         1.07700         2.74400
O           3.85300         0.72600         3.30000
C           7.02500         1.21400         1.62400
H           6.64400         1.10600         3.75100
C           4.16400         0.69900         4.68800
H           8.09500         1.36500         1.57800
H           4.60800         1.64800         5.01500
H           3.21700         0.54600         5.20500
H           4.84700        -0.12400         4.92700

D 8 9 32 33 F
D 33 35 38 40 F
D 46 41 47 50 F
D 10 18 24 25 F
D 1 19 28 30 F
D 9 8 10 23 F
D 6 2 1 20 F

