%mem=10GB 
%nprocshared=8 
# opt=modredundant wb97xd/6-311+g(d,p) 

 NDI_-125.pdb

0  1
C          -2.56300        -2.99400        -0.40900
C          -2.25700        -1.55100        -0.22400
C          -3.30100        -0.60700        -0.08300
C          -4.65000        -1.02400        -0.11500
C          -4.99200        -2.45900        -0.30400
C          -0.94900        -1.13700        -0.21500
C          -2.96200         0.76400         0.10200
C          -1.59500         1.18800         0.12300
C          -0.56100         0.23200        -0.07200
C          -1.32800         2.61600         0.44600
C          -3.77700         3.11500         0.50800
C          -4.03500         1.67900         0.26800
C          -5.35600         1.25200         0.23000
C          -5.67200        -0.09800         0.03600
H          -6.69900        -0.44200         0.00800
H          -6.13300         1.99700         0.36100
H          -0.19000        -1.89500        -0.36900
N          -2.43200         3.47600         0.60800
N          -3.91600        -3.35300        -0.43800
O          -1.69500        -3.84700        -0.53200
O          -6.14900        -2.85000        -0.34000
O          -4.67600         3.93800         0.62900
O          -0.21200         3.09700         0.59600
C          -2.11100         4.87500         0.91200
H          -1.54000         4.93100         1.84000
H          -1.50000         5.29900         0.11100
H          -3.05000         5.41400         1.00300
C          -4.20600        -4.77900        -0.62500
H          -3.75900        -5.12600        -1.55900
H          -3.77500        -5.35500         0.19600
H          -5.28600        -4.89700        -0.64900
C           0.87600         0.48200        -0.17800
C           1.78300         0.13800        -1.16100
S           1.71500         1.21000         1.19200
C           3.11600         0.45300        -0.83200
H           1.49000        -0.31900        -2.09200
C           3.27600         1.05900         0.41800
O           4.21500         0.22600        -1.60100
C           4.49200         1.53300         1.01500
C           4.00200        -0.25900        -2.92400
C           4.65300         2.11500         2.27100
S           6.05600         1.44700         0.20800
H           4.98600        -0.29500        -3.39200
H           3.56900        -1.26600        -2.91200
H           3.34700         0.41200        -3.49200
C           5.99400         2.48200         2.57700
O           3.56600         2.28200         3.06900
C           6.85200         2.17900         1.55400
H           6.30600         2.94400         3.50300
C           3.76600         2.84700         4.36000
H           7.92000         2.34600         1.52000
H           4.16900         3.86600         4.29100
H           2.78400         2.87800         4.83100
H           4.44100         2.22900         4.96400

D 8 9 32 33 F
D 33 35 38 40 F
D 46 41 47 50 F
D 10 18 24 25 F
D 1 19 28 30 F
D 9 8 10 23 F
D 6 2 1 20 F

