%mem=10GB 
%nprocshared=8 
# opt=modredundant wb97xd/6-311+g(d,p) 

 NDI_25.pdb

0  1
C          -2.56300        -2.99400        -0.40900
C          -2.25700        -1.55100        -0.22400
C          -3.30100        -0.60700        -0.08300
C          -4.65000        -1.02400        -0.11500
C          -4.99200        -2.45900        -0.30400
C          -0.94900        -1.13700        -0.21500
C          -2.96200         0.76400         0.10200
C          -1.59500         1.18800         0.12300
C          -0.56100         0.23200        -0.07200
C          -1.32800         2.61600         0.44600
C          -3.77700         3.11500         0.50800
C          -4.03500         1.67900         0.26800
C          -5.35600         1.25200         0.23000
C          -5.67200        -0.09800         0.03600
H          -6.69900        -0.44200         0.00800
H          -6.13300         1.99700         0.36100
H          -0.19000        -1.89500        -0.36900
N          -2.43200         3.47600         0.60800
N          -3.91600        -3.35300        -0.43800
O          -1.69500        -3.84700        -0.53200
O          -6.14900        -2.85000        -0.34000
O          -4.67600         3.93800         0.62900
O          -0.21200         3.09700         0.59600
C          -2.11100         4.87500         0.91200
H          -1.54000         4.93100         1.84000
H          -1.50000         5.29900         0.11100
H          -3.05000         5.41400         1.00300
C          -4.20600        -4.77900        -0.62500
H          -3.75900        -5.12600        -1.55900
H          -3.77500        -5.35500         0.19600
H          -5.28600        -4.89700        -0.64900
C           0.87600         0.48200        -0.17800
C           1.65100         1.51800         0.30500
S           1.85100        -0.58100        -1.19300
C           2.99300         1.46300        -0.12000
H           1.26100         2.28700         0.95200
C           3.29500         0.37200        -0.94200
O           3.97800         2.34700         0.19200
C           4.57000         0.01800        -1.49700
C           3.67300         3.36200         1.14400
C           4.86400        -1.05600        -2.33600
S           6.04200         0.93600        -1.18800
H           4.60300         3.90500         1.31200
H           2.91400         4.05400         0.75600
H           3.32100         2.92800         2.08700
C           6.23300        -1.13900        -2.71800
O           3.86800        -1.90400        -2.70300
C           6.97900        -0.12900        -2.17200
H           6.64300        -1.90400        -3.36300
C           4.19200        -2.97100        -3.58700
H           8.03800         0.04800        -2.29800
H           4.92800        -3.65000        -3.13900
H           3.26200        -3.51000        -3.76100
H           4.57800        -2.59300        -4.54100

D 8 9 32 33 F
D 33 35 38 40 F
D 46 41 47 50 F
D 10 18 24 25 F
D 1 19 28 30 F
D 9 8 10 23 F
D 6 2 1 20 F

