%mem=10GB 
%nprocshared=8 
# opt=modredundant wb97xd/6-311+g(d,p) 

 NDI_-130.pdb

0  1
C          -2.56300        -2.99400        -0.40900
C          -2.25700        -1.55100        -0.22400
C          -3.30100        -0.60700        -0.08300
C          -4.65000        -1.02400        -0.11500
C          -4.99200        -2.45900        -0.30400
C          -0.94900        -1.13700        -0.21500
C          -2.96200         0.76400         0.10200
C          -1.59500         1.18800         0.12300
C          -0.56100         0.23200        -0.07200
C          -1.32800         2.61600         0.44600
C          -3.77700         3.11500         0.50800
C          -4.03500         1.67900         0.26800
C          -5.35600         1.25200         0.23000
C          -5.67200        -0.09800         0.03600
H          -6.69900        -0.44200         0.00800
H          -6.13300         1.99700         0.36100
H          -0.19000        -1.89500        -0.36900
N          -2.43200         3.47600         0.60800
N          -3.91600        -3.35300        -0.43800
O          -1.69500        -3.84700        -0.53200
O          -6.14900        -2.85000        -0.34000
O          -4.67600         3.93800         0.62900
O          -0.21200         3.09700         0.59600
C          -2.11100         4.87500         0.91200
H          -1.54000         4.93100         1.84000
H          -1.50000         5.29900         0.11100
H          -3.05000         5.41400         1.00300
C          -4.20600        -4.77900        -0.62500
H          -3.75900        -5.12600        -1.55900
H          -3.77500        -5.35500         0.19600
H          -5.28600        -4.89700        -0.64900
C           0.87600         0.48200        -0.17800
C           1.80000         0.06200        -1.11500
S           1.69000         1.33100         1.13600
C           3.12600         0.41300        -0.79500
H           1.52400        -0.47600        -2.00800
C           3.26300         1.12400         0.40200
O           4.23700         0.12900        -1.52500
C           4.46800         1.65600         0.97300
C           4.04800        -0.46900        -2.80400
C           4.60600         2.34400         2.17700
S           6.04400         1.51200         0.20000
H           5.03900        -0.53800        -3.25300
H           3.62000        -1.47500        -2.71300
H           3.39800         0.14600        -3.43700
C           5.94000         2.74600         2.47000
O           3.50600         2.57200         2.94200
C           6.81500         2.36200         1.49000
H           6.23600         3.28800         3.35700
C           3.68300         3.24700         4.18200
H           7.88300         2.53400         1.45700
H           4.08100         4.25800         4.03200
H           2.69400         3.31100         4.63400
H           4.35200         2.68700         4.84700

D 8 9 32 33 F
D 33 35 38 40 F
D 46 41 47 50 F
D 10 18 24 25 F
D 1 19 28 30 F
D 9 8 10 23 F
D 6 2 1 20 F

