%mem=10GB 
%nprocshared=8 
# opt=modredundant wb97xd/6-311+g(d,p) 

 NDI_-40.pdb

0  1
C          -2.56300        -2.99400        -0.40900
C          -2.25700        -1.55100        -0.22400
C          -3.30100        -0.60700        -0.08300
C          -4.65000        -1.02400        -0.11500
C          -4.99200        -2.45900        -0.30400
C          -0.94900        -1.13700        -0.21500
C          -2.96200         0.76400         0.10200
C          -1.59500         1.18800         0.12300
C          -0.56100         0.23200        -0.07200
C          -1.32800         2.61600         0.44600
C          -3.77700         3.11500         0.50800
C          -4.03500         1.67900         0.26800
C          -5.35600         1.25200         0.23000
C          -5.67200        -0.09800         0.03600
H          -6.69900        -0.44200         0.00800
H          -6.13300         1.99700         0.36100
H          -0.19000        -1.89500        -0.36900
N          -2.43200         3.47600         0.60800
N          -3.91600        -3.35300        -0.43800
O          -1.69500        -3.84700        -0.53200
O          -6.14900        -2.85000        -0.34000
O          -4.67600         3.93800         0.62900
O          -0.21200         3.09700         0.59600
C          -2.11100         4.87500         0.91200
H          -1.54000         4.93100         1.84000
H          -1.50000         5.29900         0.11100
H          -3.05000         5.41400         1.00300
C          -4.20600        -4.77900        -0.62500
H          -3.75900        -5.12600        -1.55900
H          -3.77500        -5.35500         0.19600
H          -5.28600        -4.89700        -0.64900
C           0.87600         0.48200        -0.17800
C           1.57400         1.49000        -0.81500
S           1.99700        -0.72300         0.45500
C           2.97000         1.30800        -0.79300
H           1.08800         2.33600        -1.27400
C           3.39300         0.15200        -0.13000
O           3.90200         2.13300        -1.34200
C           4.74100        -0.28600         0.09700
C           3.44800         3.37000        -1.88300
C           5.16000        -1.45100         0.73800
S           6.15100         0.63000        -0.42800
H           4.34400         3.90900        -2.19200
H           2.80200         3.20900        -2.75500
H           2.90500         3.95600        -1.13200
C           6.57400        -1.60300         0.80600
O           4.22900        -2.31000         1.23000
C           7.22900        -0.55500         0.21700
H           7.07800        -2.44200         1.26500
C           4.68600        -3.50800         1.84800
H           8.29800        -0.41600         0.12400
H           5.29900        -3.29000         2.73200
H           3.79200        -4.05000         2.15200
H           5.26400        -4.12200         1.14600

D 8 9 32 33 F
D 33 35 38 40 F
D 46 41 47 50 F
D 10 18 24 25 F
D 1 19 28 30 F
D 9 8 10 23 F
D 6 2 1 20 F

