%mem=10GB 
%nprocshared=8 
# opt=modredundant wb97xd/6-311+g(d,p) 

 NDI_125.pdb

0  1
C          -2.56300        -2.99400        -0.40900
C          -2.25700        -1.55100        -0.22400
C          -3.30100        -0.60700        -0.08300
C          -4.65000        -1.02400        -0.11500
C          -4.99200        -2.45900        -0.30400
C          -0.94900        -1.13700        -0.21500
C          -2.96200         0.76400         0.10200
C          -1.59500         1.18800         0.12300
C          -0.56100         0.23200        -0.07200
C          -1.32800         2.61600         0.44600
C          -3.77700         3.11500         0.50800
C          -4.03500         1.67900         0.26800
C          -5.35600         1.25200         0.23000
C          -5.67200        -0.09800         0.03600
H          -6.69900        -0.44200         0.00800
H          -6.13300         1.99700         0.36100
H          -0.19000        -1.89500        -0.36900
N          -2.43200         3.47600         0.60800
N          -3.91600        -3.35300        -0.43800
O          -1.69500        -3.84700        -0.53200
O          -6.14900        -2.85000        -0.34000
O          -4.67600         3.93800         0.62900
O          -0.21200         3.09700         0.59600
C          -2.11100         4.87500         0.91200
H          -1.54000         4.93100         1.84000
H          -1.50000         5.29900         0.11100
H          -3.05000         5.41400         1.00300
C          -4.20600        -4.77900        -0.62500
H          -3.75900        -5.12600        -1.55900
H          -3.77500        -5.35500         0.19600
H          -5.28600        -4.89700        -0.64900
C           0.87600         0.48200        -0.17800
C           1.93900        -0.03900         0.53400
S           1.44000         1.75000        -1.26700
C           3.17600         0.55500         0.21400
H           1.82600        -0.83100         1.25600
C           3.10300         1.55200        -0.76400
O           4.38500         0.24900         0.75600
C           4.18500         2.30700        -1.33000
C           4.44500        -0.86600         1.64200
C           4.10700         3.31700        -2.28700
S           5.86900         2.06000        -0.87700
H           5.49700        -0.99000         1.89600
H           3.87000        -0.67700         2.55600
H           4.07100        -1.77700         1.15800
C           5.36600         3.87600        -2.64800
O           2.89300         3.67000        -2.78300
C           6.39900         3.29300        -1.96400
H           5.49900         4.66800        -3.37200
C           2.84200         4.72900        -3.73300
H           7.45200         3.52500        -2.04100
H           3.40400         4.47600        -4.64100
H           1.78900         4.85800        -3.98400
H           3.23300         5.66200        -3.31100

D 8 9 32 33 F
D 33 35 38 40 F
D 46 41 47 50 F
D 10 18 24 25 F
D 1 19 28 30 F
D 9 8 10 23 F
D 6 2 1 20 F

