%mem=10GB 
%nprocshared=8 
# opt=modredundant wb97xd/6-311+g(d,p) 

 NDI_180.pdb

0  1
C          -2.56300        -2.99400        -0.40900
C          -2.25700        -1.55100        -0.22400
C          -3.30100        -0.60700        -0.08300
C          -4.65000        -1.02400        -0.11500
C          -4.99200        -2.45900        -0.30400
C          -0.94900        -1.13700        -0.21500
C          -2.96200         0.76400         0.10200
C          -1.59500         1.18800         0.12300
C          -0.56100         0.23200        -0.07200
C          -1.32800         2.61600         0.44600
C          -3.77700         3.11500         0.50800
C          -4.03500         1.67900         0.26800
C          -5.35600         1.25200         0.23000
C          -5.67200        -0.09800         0.03600
H          -6.69900        -0.44200         0.00800
H          -6.13300         1.99700         0.36100
H          -0.19000        -1.89500        -0.36900
N          -2.43200         3.47600         0.60800
N          -3.91600        -3.35300        -0.43800
O          -1.69500        -3.84700        -0.53200
O          -6.14900        -2.85000        -0.34000
O          -4.67600         3.93800         0.62900
O          -0.21200         3.09700         0.59600
C          -2.11100         4.87500         0.91200
H          -1.54000         4.93100         1.84000
H          -1.50000         5.29900         0.11100
H          -3.05000         5.41400         1.00300
C          -4.20600        -4.77900        -0.62500
H          -3.75900        -5.12600        -1.55900
H          -3.77500        -5.35500         0.19600
H          -5.28600        -4.89700        -0.64900
C           0.87600         0.48200        -0.17800
C           1.93300        -0.38700        -0.36600
S           1.47800         2.11400         0.11300
C           3.19500         0.23500        -0.28600
H           1.79700        -1.43800        -0.56400
C           3.14600         1.61100        -0.03900
O           4.40500        -0.36800        -0.42400
C           4.24900         2.52500         0.05400
C           4.41500        -1.73800        -0.81600
C           4.20000         3.89200         0.32400
S           5.92600         2.03500        -0.16900
H           5.46400        -2.00400        -0.94800
H           3.97400        -2.37600        -0.04100
H           3.87500        -1.88500        -1.75900
C           5.47400         4.52700         0.34900
O           2.99500         4.48600         0.52800
C           6.49000         3.64400         0.10000
H           5.63000         5.58000         0.54200
C           2.97900         5.87500         0.83600
H           7.55000         3.85500         0.06200
H           3.40000         6.46900         0.01500
H           1.93200         6.14100         0.97400
H           3.53400         6.08500         1.75800

D 8 9 32 33 F
D 33 35 38 40 F
D 46 41 47 50 F
D 10 18 24 25 F
D 1 19 28 30 F
D 9 8 10 23 F
D 6 2 1 20 F

