%mem=10GB 
%nprocshared=8 
# opt=modredundant b3lyp/6-311+g(d,p) 

 NDI_-155.pdb

0  1
C          -2.56300        -2.99400        -0.40900
C          -2.25700        -1.55100        -0.22400
C          -3.30100        -0.60700        -0.08300
C          -4.65000        -1.02400        -0.11500
C          -4.99200        -2.45900        -0.30400
C          -0.94900        -1.13700        -0.21500
C          -2.96200         0.76400         0.10200
C          -1.59500         1.18800         0.12300
C          -0.56100         0.23200        -0.07200
C          -1.32800         2.61600         0.44600
C          -3.77700         3.11500         0.50800
C          -4.03500         1.67900         0.26800
C          -5.35600         1.25200         0.23000
C          -5.67200        -0.09800         0.03600
H          -6.69900        -0.44200         0.00800
H          -6.13300         1.99700         0.36100
H          -0.19000        -1.89500        -0.36900
N          -2.43200         3.47600         0.60800
N          -3.91600        -3.35300        -0.43800
O          -1.69500        -3.84700        -0.53200
O          -6.14900        -2.85000        -0.34000
O          -4.67600         3.93800         0.62900
O          -0.21200         3.09700         0.59600
C          -2.11100         4.87500         0.91200
H          -1.54000         4.93100         1.84000
H          -1.50000         5.29900         0.11100
H          -3.05000         5.41400         1.00300
C          -4.20600        -4.77900        -0.62500
H          -3.75900        -5.12600        -1.55900
H          -3.77500        -5.35500         0.19600
H          -5.28600        -4.89700        -0.64900
C           0.87600         0.48200        -0.17800
C           1.87700        -0.24500        -0.79200
S           1.57100         1.83600         0.71400
C           3.16900         0.26800        -0.56100
H           1.68000        -1.11600        -1.39600
C           3.20000         1.41700         0.23700
O           4.33800        -0.24100        -1.03200
C           4.34800         2.19300         0.61300
C           4.25900        -1.32300        -1.95500
C           4.38000         3.32300         1.42700
S           5.98200         1.81500         0.07400
H           5.28300        -1.52600        -2.26800
H           3.84000        -2.21900        -1.48100
H           3.65200        -1.05600        -2.82800
C           5.68100         3.87100         1.61200
O           3.22000         3.79600         1.95300
C           6.63700         3.15700         0.94100
H           5.89800         4.74500         2.21100
C           3.28900         4.93100         2.80900
H           7.70000         3.34900         0.91000
H           3.68200         5.80700         2.27700
H           2.26600         5.13100         3.12700
H           3.91200         4.72900         3.68800

D 8 9 32 33 F

