%mem=10GB 
%nprocshared=8 
# opt=modredundant b3lyp/6-311+g(d,p) 

 pg2T_TT_-140.pdb

0  1
C          -4.25000        -1.36000        -0.21000
C          -2.93000        -0.95000        -0.61000
C          -1.97000        -2.05000        -0.62000
C          -4.33000        -2.76000         0.10000
S          -2.80000        -3.56000        -0.11000
H          -5.23000        -3.27000         0.41000
C          -0.56000        -2.13000        -0.97000
S           0.11500        -3.52000        -1.87300
C           1.71300        -2.85600        -1.86700
C           1.77100        -1.57200        -1.21600
C           0.49500        -1.14500        -0.72200
H           0.31100        -0.14800        -0.35500
S           3.08000        -0.59200        -1.78700
C           3.60000        -1.86300        -2.89700
C           2.74300        -3.02600        -2.83800
H           4.35200        -1.69800        -3.65500
H           2.72700        -3.78300        -3.61700
H          -2.89000         0.24000        -0.97000
O          -5.60000        -0.36000        -0.40000
H          -5.76000         0.85000        -0.75000

D 2 3 7 8 F

