%mem=10GB 
%nprocshared=8 
# opt=modredundant b3lyp/6-311+g(d,p) 

 pg2T_TT_75.pdb

0  1
C          -4.25000        -1.36000        -0.21000
C          -2.93000        -0.95000        -0.61000
C          -1.97000        -2.05000        -0.62000
C          -4.33000        -2.76000         0.10000
S          -2.80000        -3.56000        -0.11000
H          -5.23000        -3.27000         0.41000
C          -0.56000        -2.13000        -0.97000
S           0.72200        -1.49500         0.10600
C           1.98400        -1.96600        -0.97900
C           1.47800        -2.63100        -2.15300
C           0.05000        -2.74400        -2.15100
H          -0.49200        -3.35000        -2.86000
S           2.63700        -3.70600        -2.86300
C           3.83200        -3.29400        -1.63200
C           3.32100        -2.34900        -0.66500
H           4.76000        -3.83700        -1.52100
H           3.79100        -2.18500         0.30100
H          -2.89000         0.24000        -0.97000
O          -5.60000        -0.36000        -0.40000
H          -5.76000         0.85000        -0.75000

D 2 3 7 8 F

