%mem=100GB 
%nprocshared=8 
# opt=modredundant hf/aug-cc-pvdz 

 pBTTT_105.pdb

0  1
C          -4.25000        -1.36000        -0.21000
C          -2.93000        -0.95000        -0.61000
C          -1.97000        -2.05000        -0.62000
C          -4.33000        -2.76000         0.10000
H          -5.10000        -0.70000        -0.14000
S          -2.80000        -3.56000        -0.11000
H          -5.23000        -3.27000         0.41000
C          -0.56000        -2.13000        -0.97000
S           0.72000        -2.26300         0.27500
C           1.98200        -2.30800        -0.90800
C           1.47400        -2.25300        -2.25500
C           0.04500        -2.17000        -2.30300
H          -0.52000        -2.28300        -3.21500
S           2.54300        -2.98900        -3.40200
C           3.70400        -3.37900        -2.13100
C           3.24700        -2.96100        -0.82500
H           4.55600        -4.02100        -2.30200
H           3.67400        -3.34600         0.09700
O          -2.40000         0.49000        -0.72000
H          -2.92000         1.52000        -0.76000

D 2 3 8 9 F

