%mem=100GB 
%nprocshared=8 
# opt=modredundant hf/aug-cc-pvdz 

 pBTTT_155.pdb

0  1
C          -4.25000        -1.36000        -0.21000
C          -2.93000        -0.95000        -0.61000
C          -1.97000        -2.05000        -0.62000
C          -4.33000        -2.76000         0.10000
H          -5.10000        -0.70000        -0.14000
S          -2.80000        -3.56000        -0.11000
H          -5.23000        -3.27000         0.41000
C          -0.56000        -2.13000        -0.97000
S           0.51400        -3.39400        -0.29600
C           1.89000        -2.80700        -1.16600
C           1.57100        -1.67500        -1.99800
C           0.19200        -1.29500        -1.90900
H          -0.26500        -0.58100        -2.57600
S           2.63900        -1.52000        -3.35300
C           3.55000        -2.94500        -2.84800
C           3.00800        -3.54600        -1.65100
H           4.30000        -3.40500        -3.47700
H           3.24700        -4.56100        -1.34400
O          -2.40000         0.49000        -0.72000
H          -2.92000         1.52000        -0.76000

D 2 3 8 9 F

