%mem=100GB 
%nprocshared=8 
# opt=modredundant hf/aug-cc-pvdz 

 pBTTT_-15.pdb

0  1
C          -4.25000        -1.36000        -0.21000
C          -2.93000        -0.95000        -0.61000
C          -1.97000        -2.05000        -0.62000
C          -4.33000        -2.76000         0.10000
H          -5.10000        -0.70000        -0.14000
S          -2.80000        -3.56000        -0.11000
H          -5.23000        -3.27000         0.41000
C          -0.56000        -2.13000        -0.97000
S           0.26500        -0.83100        -1.88400
C           1.78200        -1.66200        -1.86000
C           1.71200        -2.91200        -1.14700
C           0.40400        -3.17800        -0.62700
H           0.19900        -3.97800         0.06800
S           3.24200        -3.39600        -0.49400
C           4.02500        -1.96100        -1.16100
C           3.09500        -1.10400        -1.86100
H           5.03600        -1.68000        -0.90300
H           3.31600        -0.06700        -2.09700
O          -2.40000         0.49000        -0.72000
H          -2.92000         1.52000        -0.76000

D 2 3 8 9 F

