%mem=10GB 
%nprocshared=8 
# opt=modredundant b3lyp/6-311+g(d,p) 

 NDI_-160.pdb

-2  1
C          -2.56300        -2.99400        -0.40900
C          -2.25700        -1.55100        -0.22400
C          -3.30100        -0.60700        -0.08300
C          -4.65000        -1.02400        -0.11500
C          -4.99200        -2.45900        -0.30400
C          -0.94900        -1.13700        -0.21500
C          -2.96200         0.76400         0.10200
C          -1.59500         1.18800         0.12300
C          -0.56100         0.23200        -0.07200
C          -1.32800         2.61600         0.44600
C          -3.77700         3.11500         0.50800
C          -4.03500         1.67900         0.26800
C          -5.35600         1.25200         0.23000
C          -5.67200        -0.09800         0.03600
H          -6.69900        -0.44200         0.00800
H          -6.13300         1.99700         0.36100
H          -0.19000        -1.89500        -0.36900
N          -2.43200         3.47600         0.60800
N          -3.91600        -3.35300        -0.43800
O          -1.69500        -3.84700        -0.53200
O          -6.14900        -2.85000        -0.34000
O          -4.67600         3.93800         0.62900
O          -0.21200         3.09700         0.59600
C          -2.11100         4.87500         0.91200
H          -1.54000         4.93100         1.84000
H          -1.50000         5.29900         0.11100
H          -3.05000         5.41400         1.00300
C          -4.20600        -4.77900        -0.62500
H          -3.75900        -5.12600        -1.55900
H          -3.77500        -5.35500         0.19600
H          -5.28600        -4.89700        -0.64900
C           0.87600         0.48200        -0.17800
C           1.89100        -0.28800        -0.71200
S           1.55000         1.91200         0.60500
C           3.17500         0.25200        -0.50800
H           1.70800        -1.20900        -1.24200
C           3.18800         1.46500         0.18900
O           4.35500        -0.28700        -0.91600
C           4.32600         2.27800         0.51400
C           4.29600        -1.44500        -1.74500
C           4.33900         3.47500         1.22900
S           5.97000         1.86700         0.03400
H           5.32600        -1.66700        -2.02400
H           3.87500        -2.30000        -1.20200
H           3.70000        -1.25800        -2.64600
C           5.63400         4.04500         1.38500
O           3.16900         3.98300         1.69500
C           6.60400         3.28300         0.79100
H           5.83700         4.96900         1.91000
C           3.21800         5.18700         2.45100
H           7.66700         3.47900         0.76000
H           3.61500         6.01700         1.85300
H           2.19000         5.40600         2.73600
H           3.82900         5.06500         3.35400

D 8 9 32 33 F

