%mem=10GB 
%nprocshared=8 
# opt=modredundant b3lyp/6-311+g(d,p) 

 NDI_-140.pdb

-2  1
C          -2.56300        -2.99400        -0.40900
C          -2.25700        -1.55100        -0.22400
C          -3.30100        -0.60700        -0.08300
C          -4.65000        -1.02400        -0.11500
C          -4.99200        -2.45900        -0.30400
C          -0.94900        -1.13700        -0.21500
C          -2.96200         0.76400         0.10200
C          -1.59500         1.18800         0.12300
C          -0.56100         0.23200        -0.07200
C          -1.32800         2.61600         0.44600
C          -3.77700         3.11500         0.50800
C          -4.03500         1.67900         0.26800
C          -5.35600         1.25200         0.23000
C          -5.67200        -0.09800         0.03600
H          -6.69900        -0.44200         0.00800
H          -6.13300         1.99700         0.36100
H          -0.19000        -1.89500        -0.36900
N          -2.43200         3.47600         0.60800
N          -3.91600        -3.35300        -0.43800
O          -1.69500        -3.84700        -0.53200
O          -6.14900        -2.85000        -0.34000
O          -4.67600         3.93800         0.62900
O          -0.21200         3.09700         0.59600
C          -2.11100         4.87500         0.91200
H          -1.54000         4.93100         1.84000
H          -1.50000         5.29900         0.11100
H          -3.05000         5.41400         1.00300
C          -4.20600        -4.77900        -0.62500
H          -3.75900        -5.12600        -1.55900
H          -3.77500        -5.35500         0.19600
H          -5.28600        -4.89700        -0.64900
C           0.87600         0.48200        -0.17800
C           1.83300        -0.07800        -1.00200
S           1.64100         1.55500         0.99500
C           3.14500         0.34300        -0.70900
H           1.58900        -0.76400        -1.79800
C           3.23800         1.25000         0.35100
O           4.28100        -0.04500        -1.34800
C           4.41900         1.88900         0.85800
C           4.13700        -0.85500        -2.51100
C           4.51300         2.77500         1.93000
S           6.01900         1.64000         0.16600
H           5.14200        -0.98400        -2.91300
H           3.71600        -1.83700        -2.26100
H           3.50000        -0.36600        -3.25900
C           5.83300         3.24100         2.18800
O           3.38800         3.11300         2.61300
C           6.74200         2.70900         1.31300
H           6.09600         3.93000         2.97800
C           3.52000         3.99200         3.72500
H           7.80800         2.88800         1.28200
H           3.91200         4.96900         3.41500
H           2.51700         4.11700         4.13000
H           4.17400         3.56400         4.49400

D 8 9 32 33 F

