%mem=10GB 
%nprocshared=8 
# opt=modredundant b3lyp/6-311+g(d,p) 

 NDI_85.pdb

-2  1
C          -2.56300        -2.99400        -0.40900
C          -2.25700        -1.55100        -0.22400
C          -3.30100        -0.60700        -0.08300
C          -4.65000        -1.02400        -0.11500
C          -4.99200        -2.45900        -0.30400
C          -0.94900        -1.13700        -0.21500
C          -2.96200         0.76400         0.10200
C          -1.59500         1.18800         0.12300
C          -0.56100         0.23200        -0.07200
C          -1.32800         2.61600         0.44600
C          -3.77700         3.11500         0.50800
C          -4.03500         1.67900         0.26800
C          -5.35600         1.25200         0.23000
C          -5.67200        -0.09800         0.03600
H          -6.69900        -0.44200         0.00800
H          -6.13300         1.99700         0.36100
H          -0.19000        -1.89500        -0.36900
N          -2.43200         3.47600         0.60800
N          -3.91600        -3.35300        -0.43800
O          -1.69500        -3.84700        -0.53200
O          -6.14900        -2.85000        -0.34000
O          -4.67600         3.93800         0.62900
O          -0.21200         3.09700         0.59600
C          -2.11100         4.87500         0.91200
H          -1.54000         4.93100         1.84000
H          -1.50000         5.29900         0.11100
H          -3.05000         5.41400         1.00300
C          -4.20600        -4.77900        -0.62500
H          -3.75900        -5.12600        -1.55900
H          -3.77500        -5.35500         0.19600
H          -5.28600        -4.89700        -0.64900
C           0.87600         0.48200        -0.17800
C           1.84400         0.61800         0.79800
S           1.56400         0.82600        -1.76500
C           3.10700         0.98200         0.29100
H           1.64600         0.45000         1.84400
C           3.15100         1.13200        -1.09900
O           4.24000         1.19100         1.01400
C           4.29000         1.45300        -1.91100
C           4.19600         0.89100         2.40600
C           4.32700         1.62500        -3.29400
S           5.90600         1.69100        -1.25100
H           5.20800         1.04500         2.77800
H           3.50800         1.56200         2.93500
H           3.89300        -0.14900         2.57800
C           5.61800         1.93800        -3.80800
O           3.18300         1.48200        -4.01200
C           6.56000         2.00600        -2.81700
H           5.83600         2.10600        -4.85400
C           3.24500         1.69800        -5.41700
H           7.61300         2.22700        -2.92500
H           3.91900         0.98000        -5.90100
H           2.23200         1.55000        -5.79000
H           3.57300         2.71800        -5.64900

D 8 9 32 33 F

