%mem=10GB 
%nprocshared=8 
# opt=modredundant b3lyp/6-311+g(d,p) 

 NDI_-150.pdb

-1  2
C          -2.56300        -2.99400        -0.40900
C          -2.25700        -1.55100        -0.22400
C          -3.30100        -0.60700        -0.08300
C          -4.65000        -1.02400        -0.11500
C          -4.99200        -2.45900        -0.30400
C          -0.94900        -1.13700        -0.21500
C          -2.96200         0.76400         0.10200
C          -1.59500         1.18800         0.12300
C          -0.56100         0.23200        -0.07200
C          -1.32800         2.61600         0.44600
C          -3.77700         3.11500         0.50800
C          -4.03500         1.67900         0.26800
C          -5.35600         1.25200         0.23000
C          -5.67200        -0.09800         0.03600
H          -6.69900        -0.44200         0.00800
H          -6.13300         1.99700         0.36100
H          -0.19000        -1.89500        -0.36900
N          -2.43200         3.47600         0.60800
N          -3.91600        -3.35300        -0.43800
O          -1.69500        -3.84700        -0.53200
O          -6.14900        -2.85000        -0.34000
O          -4.67600         3.93800         0.62900
O          -0.21200         3.09700         0.59600
C          -2.11100         4.87500         0.91200
H          -1.54000         4.93100         1.84000
H          -1.50000         5.29900         0.11100
H          -3.05000         5.41400         1.00300
C          -4.20600        -4.77900        -0.62500
H          -3.75900        -5.12600        -1.55900
H          -3.77500        -5.35500         0.19600
H          -5.28600        -4.89700        -0.64900
C           0.87600         0.48200        -0.17800
C           1.86300        -0.19600        -0.86700
S           1.59400         1.75000         0.81600
C           3.16100         0.28900        -0.61300
H           1.65100        -1.01100        -1.54000
C           3.21200         1.36500         0.28000
O           4.32000        -0.18500        -1.14300
C           4.37100         2.09900         0.70300
C           4.22000        -1.18400        -2.15500
C           4.42300         3.15500         1.61100
S           5.99400         1.75900         0.11000
H           5.23800        -1.36400        -2.49900
H           3.80200        -2.11500        -1.75300
H           3.60200        -0.83900        -2.99200
C           5.73000         3.67800         1.82300
O           3.27400         3.58800         2.19300
C           6.67100         3.01900         1.07800
H           5.96200         4.49600         2.49100
C           3.36300         4.64500         3.14200
H           7.73500         3.20700         1.04800
H           3.75500         5.56100         2.68100
H           2.34700         4.82300         3.49100
H           3.99700         4.36500         3.99100

D 8 9 32 33 F

