%mem=10GB 
%nprocshared=8 
# opt=modredundant b3lyp/6-311+g(d,p) 

 pBTTT_85.pdb

0  1
C          -4.25000        -1.36000        -0.21000
C          -2.93000        -0.95000        -0.61000
C          -1.97000        -2.05000        -0.62000
C          -2.66000         0.47000        -0.96000
C          -4.33000        -2.76000         0.10000
H          -5.10000        -0.70000        -0.14000
S          -2.80000        -3.56000        -0.11000
H          -5.23000        -3.27000         0.41000
C          -0.56000        -2.13000        -0.97000
S           0.73200        -1.74000         0.20600
C           1.98800        -2.07500        -0.93600
C           1.47100        -2.51100        -2.20800
C           0.04000        -2.56200        -2.23400
H          -0.51800        -3.01700        -3.03800
S           2.59400        -3.50000        -3.08200
C           3.78900        -3.35200        -1.79200
C           3.30400        -2.56200        -0.68300
H           4.69300        -3.94500        -1.76900
H           3.76800        -2.58300         0.30000
H          -3.55000         1.09000        -0.83000
H          -2.35000         0.56000        -2.00000
H          -1.88000         0.89000        -0.31000

D 2 3 9 10 F

