%mem=10GB 
%nprocshared=8 
# opt=modredundant b3lyp/6-311+g(d,p) 

 pBTTT_-35.pdb

0  1
C          -4.25000        -1.36000        -0.21000
C          -2.93000        -0.95000        -0.61000
C          -1.97000        -2.05000        -0.62000
C          -2.66000         0.47000        -0.96000
C          -4.33000        -2.76000         0.10000
H          -5.10000        -0.70000        -0.14000
S          -2.80000        -3.56000        -0.11000
H          -5.23000        -3.27000         0.41000
C          -0.56000        -2.13000        -0.97000
S           0.14700        -1.14700        -2.28900
C           1.72900        -1.80100        -2.04100
C           1.77000        -2.74400        -0.95300
C           0.49100        -2.92500        -0.33200
H           0.35900        -3.46200         0.59500
S           3.33900        -2.86100        -0.22700
C           3.99300        -1.67200        -1.35700
C           2.98900        -1.17300        -2.27000
H           4.97800        -1.24300        -1.24000
H           3.12000        -0.25900        -2.84200
H          -3.55000         1.09000        -0.83000
H          -2.35000         0.56000        -2.00000
H          -1.88000         0.89000        -0.31000

D 2 3 9 10 F

