%mem=10GB 
%nprocshared=8 
# opt=modredundant b3lyp/6-311+g(d,p) 

 NDI_30.pdb

0  1
C          -2.56000        -2.99000        -0.41000
C          -2.26000        -1.55000        -0.22000
C          -3.30000        -0.61000        -0.08000
C          -4.65000        -1.02000        -0.12000
C          -4.99000        -2.46000        -0.30000
C          -0.95000        -1.14000        -0.22000
C          -2.96000         0.76000         0.10000
C          -1.60000         1.19000         0.12000
C          -0.56000         0.23000        -0.07000
C          -1.33000         2.62000         0.45000
C          -3.78000         3.12000         0.51000
C          -4.03000         1.68000         0.27000
C          -5.36000         1.25000         0.23000
C          -5.67000        -0.10000         0.04000
H          -6.70000        -0.44000         0.01000
H          -6.13000         2.00000         0.36000
H          -0.19000        -1.90000        -0.37000
N          -2.43000         3.48000         0.61000
N          -3.92000        -3.35000        -0.44000
O          -1.69000        -3.85000        -0.53000
O          -6.15000        -2.85000        -0.34000
O          -4.68000         3.94000         0.63000
O          -0.21000         3.10000         0.60000
C           0.88000         0.48000        -0.18000
C           1.66500         1.46800         0.36800
S           1.83100        -0.51100        -1.27900
C           3.00300         1.43900        -0.08400
H           1.29700         2.19900         1.07800
C           3.28300         0.40300        -0.97800
O           4.00100         2.29500         0.28600
C           4.54800         0.08600        -1.58200
C           4.82200        -0.92800        -2.49800
S           6.03300         0.96300        -1.22500
C           6.18200        -0.99800        -2.90100
O           3.81400        -1.73800        -2.91000
C           6.94900        -0.02900        -2.29500
H           6.58200        -1.71000        -3.60300
H           8.01000         0.14400        -2.42100
H           3.92800        -2.34900        -3.79800
H           3.76700         2.81100         1.11800
H          -4.23000        -4.36000        -0.17000
H          -2.15000         4.41000         0.36000

D 8 9 24 25 F

