%mem=10GB 
%nprocshared=8 
# opt=modredundant b3lyp/6-311+g(d,p) 

 NDI_-10.pdb

0  1
C          -2.56000        -2.99000        -0.41000
C          -2.26000        -1.55000        -0.22000
C          -3.30000        -0.61000        -0.08000
C          -4.65000        -1.02000        -0.12000
C          -4.99000        -2.46000        -0.30000
C          -0.95000        -1.14000        -0.22000
C          -2.96000         0.76000         0.10000
C          -1.60000         1.19000         0.12000
C          -0.56000         0.23000        -0.07000
C          -1.33000         2.62000         0.45000
C          -3.78000         3.12000         0.51000
C          -4.03000         1.68000         0.27000
C          -5.36000         1.25000         0.23000
C          -5.67000        -0.10000         0.04000
H          -6.70000        -0.44000         0.01000
H          -6.13000         2.00000         0.36000
H          -0.19000        -1.90000        -0.37000
N          -2.43000         3.48000         0.61000
N          -3.92000        -3.35000        -0.44000
O          -1.69000        -3.85000        -0.53000
O          -6.15000        -2.85000        -0.34000
O          -4.68000         3.94000         0.63000
O          -0.21000         3.10000         0.60000
C           0.88000         0.48000        -0.18000
C           1.58000         1.65700        -0.31400
S           1.97100        -0.89400        -0.30700
C           2.96500         1.46800        -0.51900
H           1.11800         2.63600        -0.26700
C           3.36500         0.12900        -0.52200
O           3.90000         2.44900        -0.68600
C           4.70000        -0.38500        -0.66700
C           5.09700        -1.72000        -0.70200
S           6.11900         0.64700        -0.81300
C           6.49700        -1.90900        -0.84100
O           4.15700        -2.69300        -0.59700
C           7.17200        -0.71200        -0.91900
H           6.99000        -2.86500        -0.89000
H           8.24000        -0.56400        -1.02800
H           4.38800        -3.71300        -0.88000
H           3.55700         3.34900        -0.39600
H          -4.23000        -4.36000        -0.17000
H          -2.15000         4.41000         0.36000

D 8 9 24 25 F

