%mem=10GB 
%nprocshared=8 
# opt=modredundant b3lyp/6-311+g(d,p) 

 NDI_-60.pdb

0  1
C          -2.56000        -2.99000        -0.41000
C          -2.26000        -1.55000        -0.22000
C          -3.30000        -0.61000        -0.08000
C          -4.65000        -1.02000        -0.12000
C          -4.99000        -2.46000        -0.30000
C          -0.95000        -1.14000        -0.22000
C          -2.96000         0.76000         0.10000
C          -1.60000         1.19000         0.12000
C          -0.56000         0.23000        -0.07000
C          -1.33000         2.62000         0.45000
C          -3.78000         3.12000         0.51000
C          -4.03000         1.68000         0.27000
C          -5.36000         1.25000         0.23000
C          -5.67000        -0.10000         0.04000
H          -6.70000        -0.44000         0.01000
H          -6.13000         2.00000         0.36000
H          -0.19000        -1.90000        -0.37000
N          -2.43000         3.48000         0.61000
N          -3.92000        -3.35000        -0.44000
O          -1.69000        -3.85000        -0.53000
O          -6.15000        -2.85000        -0.34000
O          -4.68000         3.94000         0.63000
O          -0.21000         3.10000         0.60000
C           0.88000         0.48000        -0.18000
C           1.59500         1.23100        -1.08500
S           1.97500        -0.38400         0.89200
C           2.99500         1.11700        -0.92900
H           1.13400         1.85100        -1.84400
C           3.38700         0.28600         0.12500
O           3.94700         1.74200        -1.68200
C           4.72700        -0.00100         0.56000
C           5.12100        -0.85300         1.59000
S           6.15400         0.73100        -0.16800
C           6.52600        -0.91500         1.78900
O           4.17400        -1.52000         2.29600
C           7.20800        -0.11300         0.90300
H           7.01800        -1.51900         2.53200
H           8.27900         0.02800         0.83200
H           4.44400        -2.37100         2.91000
H           3.56500         2.50700        -2.21300
H          -4.23000        -4.36000        -0.17000
H          -2.15000         4.41000         0.36000

D 8 9 24 25 F

