%mem=10GB 
%nprocshared=8 
# opt=modredundant b3lyp/6-311+g(d,p) 

 NDI_60.pdb

0  1
C          -2.56000        -2.99000        -0.41000
C          -2.26000        -1.55000        -0.22000
C          -3.30000        -0.61000        -0.08000
C          -4.65000        -1.02000        -0.12000
C          -4.99000        -2.46000        -0.30000
C          -0.95000        -1.14000        -0.22000
C          -2.96000         0.76000         0.10000
C          -1.60000         1.19000         0.12000
C          -0.56000         0.23000        -0.07000
C          -1.33000         2.62000         0.45000
C          -3.78000         3.12000         0.51000
C          -4.03000         1.68000         0.27000
C          -5.36000         1.25000         0.23000
C          -5.67000        -0.10000         0.04000
H          -6.70000        -0.44000         0.01000
H          -6.13000         2.00000         0.36000
H          -0.19000        -1.90000        -0.37000
N          -2.43000         3.48000         0.61000
N          -3.92000        -3.35000        -0.44000
O          -1.69000        -3.85000        -0.53000
O          -6.15000        -2.85000        -0.34000
O          -4.68000         3.94000         0.63000
O          -0.21000         3.10000         0.60000
C           0.88000         0.48000        -0.18000
C           1.76200         1.05800         0.70400
S           1.68400         0.14600        -1.70800
C           3.05800         1.23500         0.17100
H           1.49300         1.34900         1.71200
C           3.20700         0.77000        -1.13800
O           4.13100         1.78200         0.81500
C           4.40100         0.77300        -1.93800
C           4.54400         0.33900        -3.25400
S           5.95900         1.33800        -1.34000
C           5.86300         0.45600        -3.76700
O           3.46100        -0.14700        -3.91100
C           6.73100         0.98800        -2.84000
H           6.16600         0.17600        -4.76200
H           7.78800         1.18500        -2.96500
H           3.47200        -0.24300        -4.99100
H           3.99100         1.82400         1.81100
H          -4.23000        -4.36000        -0.17000
H          -2.15000         4.41000         0.36000

D 8 9 24 25 F

