%mem=10GB 
%nprocshared=8 
# opt=modredundant b3lyp/6-311+g(d,p) 

 NDI_-80.pdb

0  1
C          -2.56000        -2.99000        -0.41000
C          -2.26000        -1.55000        -0.22000
C          -3.30000        -0.61000        -0.08000
C          -4.65000        -1.02000        -0.12000
C          -4.99000        -2.46000        -0.30000
C          -0.95000        -1.14000        -0.22000
C          -2.96000         0.76000         0.10000
C          -1.60000         1.19000         0.12000
C          -0.56000         0.23000        -0.07000
C          -1.33000         2.62000         0.45000
C          -3.78000         3.12000         0.51000
C          -4.03000         1.68000         0.27000
C          -5.36000         1.25000         0.23000
C          -5.67000        -0.10000         0.04000
H          -6.70000        -0.44000         0.01000
H          -6.13000         2.00000         0.36000
H          -0.19000        -1.90000        -0.37000
N          -2.43000         3.48000         0.61000
N          -3.92000        -3.35000        -0.44000
O          -1.69000        -3.85000        -0.53000
O          -6.15000        -2.85000        -0.34000
O          -4.68000         3.94000         0.63000
O          -0.21000         3.10000         0.60000
C           0.88000         0.48000        -0.18000
C           1.63900         0.90900        -1.24500
S           1.91800         0.06500         1.17800
C           3.02800         0.90400        -0.98400
H           1.21600         1.22200        -2.19200
C           3.36600         0.49000         0.30700
O           4.01500         1.27400        -1.85100
C           4.68000         0.41200         0.88500
C           5.02200        -0.03000         2.16100
S           6.13800         0.90900         0.03100
C           6.41200         0.02800         2.44500
O           4.04300        -0.45500         2.99900
C           7.13600         0.51100         1.37900
H           6.86600        -0.27300         3.37400
H           8.20700         0.65800         1.32200
H           4.28700        -1.04000         3.87700
H           3.65500         1.80200        -2.62900
H          -4.23000        -4.36000        -0.17000
H          -2.15000         4.41000         0.36000

D 8 9 24 25 F

