%mem=10GB 
%nprocshared=8 
# opt=modredundant b3lyp/6-311+g(d,p) 

 NDI_-90.pdb

0  1
C          -2.56000        -2.99000        -0.41000
C          -2.26000        -1.55000        -0.22000
C          -3.30000        -0.61000        -0.08000
C          -4.65000        -1.02000        -0.12000
C          -4.99000        -2.46000        -0.30000
C          -0.95000        -1.14000        -0.22000
C          -2.96000         0.76000         0.10000
C          -1.60000         1.19000         0.12000
C          -0.56000         0.23000        -0.07000
C          -1.33000         2.62000         0.45000
C          -3.78000         3.12000         0.51000
C          -4.03000         1.68000         0.27000
C          -5.36000         1.25000         0.23000
C          -5.67000        -0.10000         0.04000
H          -6.70000        -0.44000         0.01000
H          -6.13000         2.00000         0.36000
H          -0.19000        -1.90000        -0.37000
N          -2.43000         3.48000         0.61000
N          -3.92000        -3.35000        -0.44000
O          -1.69000        -3.85000        -0.53000
O          -6.15000        -2.85000        -0.34000
O          -4.68000         3.94000         0.63000
O          -0.21000         3.10000         0.60000
C           0.88000         0.48000        -0.18000
C           1.66700         0.73300        -1.28000
S           1.88100         0.31900         1.25800
C           3.04700         0.79400        -0.98300
H           1.27000         0.87300        -2.27800
C           3.34900         0.61100         0.36900
O           4.05700         1.02600        -1.87200
C           4.64600         0.65400         0.98800
C           4.95300         0.44100         2.33100
S           6.12400         1.02000         0.10500
C           6.33300         0.56900         2.64000
O           3.95300         0.15000         3.20000
C           7.08400         0.87400         1.52800
H           6.76100         0.43700         3.62000
H           8.15500         1.02600         1.47800
H           4.17700        -0.27300         4.17300
H           3.71500         1.40900        -2.73900
H          -4.23000        -4.36000        -0.17000
H          -2.15000         4.41000         0.36000

D 8 9 24 25 F

