%mem=10GB 
%nprocshared=8 
# opt=modredundant b3lyp/6-311+g(d,p) 

 NDI_-70.pdb

0  1
C          -2.56000        -2.99000        -0.41000
C          -2.26000        -1.55000        -0.22000
C          -3.30000        -0.61000        -0.08000
C          -4.65000        -1.02000        -0.12000
C          -4.99000        -2.46000        -0.30000
C          -0.95000        -1.14000        -0.22000
C          -2.96000         0.76000         0.10000
C          -1.60000         1.19000         0.12000
C          -0.56000         0.23000        -0.07000
C          -1.33000         2.62000         0.45000
C          -3.78000         3.12000         0.51000
C          -4.03000         1.68000         0.27000
C          -5.36000         1.25000         0.23000
C          -5.67000        -0.10000         0.04000
H          -6.70000        -0.44000         0.01000
H          -6.13000         2.00000         0.36000
H          -0.19000        -1.90000        -0.37000
N          -2.43000         3.48000         0.61000
N          -3.92000        -3.35000        -0.44000
O          -1.69000        -3.85000        -0.53000
O          -6.15000        -2.85000        -0.34000
O          -4.68000         3.94000         0.63000
O          -0.21000         3.10000         0.60000
C           0.88000         0.48000        -0.18000
C           1.61500         1.07700        -1.17900
S           1.95000        -0.17200         1.05500
C           3.01000         1.01200        -0.96600
H           1.17100         1.55100        -2.04500
C           3.37800         0.38000         0.22500
O           3.97800         1.51500        -1.78700
C           4.70700         0.19200         0.74000
C           5.07900        -0.46500         1.91100
S           6.14800         0.81100        -0.06100
C           6.47700        -0.47100         2.15800
O           4.11700        -1.01700         2.69400
C           7.17700         0.17900         1.16800
H           6.95200        -0.93200         3.00800
H           8.24900         0.32200         1.10500
H           4.37700        -1.74700         3.45200
H           3.60500         2.17200        -2.45200
H          -4.23000        -4.36000        -0.17000
H          -2.15000         4.41000         0.36000

D 8 9 24 25 F

