%mem=10GB 
%nprocshared=8 
# opt=modredundant b3lyp/6-311+g(d,p) 

 NDI_80.pdb

0  1
C          -2.56000        -2.99000        -0.41000
C          -2.26000        -1.55000        -0.22000
C          -3.30000        -0.61000        -0.08000
C          -4.65000        -1.02000        -0.12000
C          -4.99000        -2.46000        -0.30000
C          -0.95000        -1.14000        -0.22000
C          -2.96000         0.76000         0.10000
C          -1.60000         1.19000         0.12000
C          -0.56000         0.23000        -0.07000
C          -1.33000         2.62000         0.45000
C          -3.78000         3.12000         0.51000
C          -4.03000         1.68000         0.27000
C          -5.36000         1.25000         0.23000
C          -5.67000        -0.10000         0.04000
H          -6.70000        -0.44000         0.01000
H          -6.13000         2.00000         0.36000
H          -0.19000        -1.90000        -0.37000
N          -2.43000         3.48000         0.61000
N          -3.92000        -3.35000        -0.44000
O          -1.69000        -3.85000        -0.53000
O          -6.15000        -2.85000        -0.34000
O          -4.68000         3.94000         0.63000
O          -0.21000         3.10000         0.60000
C           0.88000         0.48000        -0.18000
C           1.82900         0.71200         0.79000
S           1.58800         0.66700        -1.77900
C           3.10000         1.03900         0.26600
H           1.62400         0.65100         1.85200
C           3.16000         1.04000        -1.13000
O           4.22400         1.32000         0.98800
C           4.31000         1.29300        -1.95500
C           4.36600         1.32500        -3.34700
S           5.91600         1.59900        -1.30100
C           5.65900         1.58800        -3.87200
O           3.23300         1.10600        -4.06000
C           6.59300         1.76300        -2.87800
H           5.89700         1.65500        -4.92000
H           7.64900         1.97400        -2.99500
H           3.18100         1.37900        -5.10700
H           4.14000         1.02700         1.94700
H          -4.23000        -4.36000        -0.17000
H          -2.15000         4.41000         0.36000

D 8 9 24 25 F

