%mem=10GB 
%nprocshared=8 
# opt=modredundant b3lyp/6-311+g(d,p) 

 NDI_40.pdb

0  1
C          -2.56000        -2.99000        -0.41000
C          -2.26000        -1.55000        -0.22000
C          -3.30000        -0.61000        -0.08000
C          -4.65000        -1.02000        -0.12000
C          -4.99000        -2.46000        -0.30000
C          -0.95000        -1.14000        -0.22000
C          -2.96000         0.76000         0.10000
C          -1.60000         1.19000         0.12000
C          -0.56000         0.23000        -0.07000
C          -1.33000         2.62000         0.45000
C          -3.78000         3.12000         0.51000
C          -4.03000         1.68000         0.27000
C          -5.36000         1.25000         0.23000
C          -5.67000        -0.10000         0.04000
H          -6.70000        -0.44000         0.01000
H          -6.13000         2.00000         0.36000
H          -0.19000        -1.90000        -0.37000
N          -2.43000         3.48000         0.61000
N          -3.92000        -3.35000        -0.44000
O          -1.69000        -3.85000        -0.53000
O          -6.15000        -2.85000        -0.34000
O          -4.68000         3.94000         0.63000
O          -0.21000         3.10000         0.60000
C           0.88000         0.48000        -0.18000
C           1.69600         1.35200         0.50400
S           1.78300        -0.31900        -1.46100
C           3.02000         1.38700         0.01300
H           1.35900         1.95500         1.33900
C           3.25700         0.51500        -1.05300
O           4.04100         2.15600         0.49200
C           4.50000         0.29300        -1.74100
C           4.73200        -0.55200        -2.82500
S           6.00800         1.08100        -1.28600
C           6.07800        -0.56700        -3.27500
O           3.70000        -1.26900        -3.33700
C           6.87700         0.27600        -2.53600
H           6.44700        -1.15300        -4.10000
H           7.93700         0.45700        -2.66300
H           3.77900        -1.72100        -4.31900
H           3.83800         2.52500         1.40700
H          -4.23000        -4.36000        -0.17000
H          -2.15000         4.41000         0.36000

D 8 9 24 25 F

