%mem=10GB 
%nprocshared=8 
# opt=modredundant b3lyp/6-311+g(d,p) 

 NDI_120.pdb

0  1
C          -2.56000        -2.99000        -0.41000
C          -2.26000        -1.55000        -0.22000
C          -3.30000        -0.61000        -0.08000
C          -4.65000        -1.02000        -0.12000
C          -4.99000        -2.46000        -0.30000
C          -0.95000        -1.14000        -0.22000
C          -2.96000         0.76000         0.10000
C          -1.60000         1.19000         0.12000
C          -0.56000         0.23000        -0.07000
C          -1.33000         2.62000         0.45000
C          -3.78000         3.12000         0.51000
C          -4.03000         1.68000         0.27000
C          -5.36000         1.25000         0.23000
C          -5.67000        -0.10000         0.04000
H          -6.70000        -0.44000         0.01000
H          -6.13000         2.00000         0.36000
H          -0.19000        -1.90000        -0.37000
N          -2.43000         3.48000         0.61000
N          -3.92000        -3.35000        -0.44000
O          -1.69000        -3.85000        -0.53000
O          -6.15000        -2.85000        -0.34000
O          -4.68000         3.94000         0.63000
O          -0.21000         3.10000         0.60000
C           0.88000         0.48000        -0.18000
C           1.93100         0.03600         0.59000
S           1.45100         1.63300        -1.37900
C           3.17200         0.60900         0.23200
H           1.82100        -0.68300         1.39200
C           3.10300         1.49500        -0.84600
O           4.37800         0.35800         0.82000
C           4.18900         2.20400        -1.46600
C           4.11900         3.11100        -2.52100
S           5.87000         2.01100        -0.97600
C           5.37600         3.63600        -2.92400
O           2.91000         3.40400        -3.06300
C           6.41000         3.13200        -2.16900
H           5.52100         4.35100        -3.71600
H           7.46400         3.36000        -2.26000
H           2.78600         4.28000        -3.68800
H           4.35800        -0.47700         1.38200
H          -4.23000        -4.36000        -0.17000
H          -2.15000         4.41000         0.36000

D 8 9 24 25 F

