%mem=10GB 
%nprocshared=8 
# opt=modredundant b3lyp/6-311+g(d,p) 

 NDI_-150.pdb

0  1
C          -2.56000        -2.99000        -0.41000
C          -2.26000        -1.55000        -0.22000
C          -3.30000        -0.61000        -0.08000
C          -4.65000        -1.02000        -0.12000
C          -4.99000        -2.46000        -0.30000
C          -0.95000        -1.14000        -0.22000
C          -2.96000         0.76000         0.10000
C          -1.60000         1.19000         0.12000
C          -0.56000         0.23000        -0.07000
C          -1.33000         2.62000         0.45000
C          -3.78000         3.12000         0.51000
C          -4.03000         1.68000         0.27000
C          -5.36000         1.25000         0.23000
C          -5.67000        -0.10000         0.04000
H          -6.70000        -0.44000         0.01000
H          -6.13000         2.00000         0.36000
H          -0.19000        -1.90000        -0.37000
N          -2.43000         3.48000         0.61000
N          -3.92000        -3.35000        -0.44000
O          -1.69000        -3.85000        -0.53000
O          -6.15000        -2.85000        -0.34000
O          -4.68000         3.94000         0.63000
O          -0.21000         3.10000         0.60000
C           0.88000         0.48000        -0.18000
C           1.86100        -0.20200        -0.86300
S           1.59500         1.76000         0.79200
C           3.16300         0.28600        -0.61300
H           1.65800        -1.03200        -1.52900
C           3.20800         1.37800         0.25700
O           4.32400        -0.19500        -1.14700
C           4.36800         2.11600         0.67600
C           4.41800         3.18600         1.56700
S           5.99100         1.77900         0.08100
C           5.72000         3.71800         1.76700
O           3.27000         3.62200         2.14400
C           6.66800         3.04800         1.02900
H           5.95700         4.54100         2.41900
H           7.73300         3.24300         0.99200
H           3.30200         4.25800         3.02000
H           4.15600        -0.78100        -1.94800
H          -4.23000        -4.36000        -0.17000
H          -2.15000         4.41000         0.36000

D 8 9 24 25 F

