%mem=10GB 
%nprocshared=8 
# opt=modredundant wb97xd/6-311+g(d,p) 

 pBTTT_20.pdb

0  1
C          -4.25000        -1.36000        -0.21000
C          -2.93000        -0.95000        -0.61000
C          -1.97000        -2.05000        -0.62000
C          -4.33000        -2.76000         0.10000
H          -5.10000        -0.70000        -0.14000
S          -2.80000        -3.56000        -0.11000
H          -5.23000        -3.27000         0.41000
C          -0.56000        -2.13000        -0.97000
S           0.49000        -0.68100        -1.01200
C           1.88200        -1.60000        -1.47200
C           1.60000        -3.00900        -1.57700
C           0.23300        -3.32100        -1.28100
H          -0.12300        -4.33100        -1.14900
S           3.00300        -3.99200        -1.32200
C           4.01000        -2.56200        -1.08300
C           3.25200        -1.33600        -1.17600
H           5.02700        -2.62500        -0.72300
H           3.62100        -0.38700        -0.79400
O          -2.40000         0.49000        -0.72000
H          -2.92000         1.52000        -0.76000

D 2 3 8 9 F

