%mem=10GB 
%nprocshared=8 
# opt=modredundant wb97xd/6-311+g(d,p) 

 pBTTT_-30.pdb

0  1
C          -4.25000        -1.36000        -0.21000
C          -2.93000        -0.95000        -0.61000
C          -1.97000        -2.05000        -0.62000
C          -4.33000        -2.76000         0.10000
H          -5.10000        -0.70000        -0.14000
S          -2.80000        -3.56000        -0.11000
H          -5.23000        -3.27000         0.41000
C          -0.56000        -2.13000        -0.97000
S           0.17500        -1.05500        -2.19800
C           1.74200        -1.76000        -2.00000
C           1.75600        -2.79200        -0.99600
C           0.47100        -2.99800        -0.39700
H           0.32200        -3.60800         0.48000
S           3.31800        -3.00300        -0.27700
C           4.00300        -1.73800        -1.29900
C           3.01600        -1.14200        -2.17000
H           4.99600        -1.34100        -1.14200
H           3.16800        -0.18600        -2.66300
O          -2.40000         0.49000        -0.72000
H          -2.92000         1.52000        -0.76000

D 2 3 8 9 F

