%mem=10GB 
%nprocshared=8 
# opt=modredundant wb97xd/6-311+g(d,p) 

 pBTTT_40.pdb

0  1
C          -4.25000        -1.36000        -0.21000
C          -2.93000        -0.95000        -0.61000
C          -1.97000        -2.05000        -0.62000
C          -4.33000        -2.76000         0.10000
H          -5.10000        -0.70000        -0.14000
S          -2.80000        -3.56000        -0.11000
H          -5.23000        -3.27000         0.41000
C          -0.56000        -2.13000        -0.97000
S           0.60200        -0.84400        -0.52300
C           1.93200        -1.67400        -1.25600
C           1.54200        -2.94000        -1.82400
C           0.14600        -3.21500        -1.65500
H          -0.29300        -4.17700        -1.86800
S           2.85400        -4.06800        -1.90400
C           3.96300        -2.89000        -1.19900
C           3.30700        -1.64100        -0.88200
H           4.96000        -3.15400        -0.87500
H           3.73700        -0.90800        -0.20500
O          -2.40000         0.49000        -0.72000
H          -2.92000         1.52000        -0.76000

D 2 3 8 9 F

