%mem=10GB 
%nprocshared=8 
# opt=modredundant wb97xd/6-311+g(d,p) 

 pBTTT_120.pdb

0  1
C          -4.25000        -1.36000        -0.21000
C          -2.93000        -0.95000        -0.61000
C          -1.97000        -2.05000        -0.62000
C          -4.33000        -2.76000         0.10000
H          -5.10000        -0.70000        -0.14000
S          -2.80000        -3.56000        -0.11000
H          -5.23000        -3.27000         0.41000
C          -0.56000        -2.13000        -0.97000
S           0.68100        -2.65200         0.20900
C           1.96500        -2.48000        -0.93900
C           1.49100        -2.05700        -2.23200
C           0.07100        -1.87300        -2.26700
H          -0.48000        -1.71900        -3.18200
S           2.53900        -2.55000        -3.52100
C           3.64500        -3.31900        -2.38000
C           3.18500        -3.21300        -1.01400
H           4.46100        -3.95100        -2.70200
H           3.56800        -3.84300        -0.21600
O          -2.40000         0.49000        -0.72000
H          -2.92000         1.52000        -0.76000

D 2 3 8 9 F

