%mem=10GB 
%nprocshared=8 
# opt=modredundant wb97xd/6-311+g(d,p) 

 pBTTT_-75.pdb

0  1
C          -4.25000        -1.36000        -0.21000
C          -2.93000        -0.95000        -0.61000
C          -1.97000        -2.05000        -0.62000
C          -4.33000        -2.76000         0.10000
H          -5.10000        -0.70000        -0.14000
S          -2.80000        -3.56000        -0.11000
H          -5.23000        -3.27000         0.41000
C          -0.56000        -2.13000        -0.97000
S          -0.00200        -2.10100        -2.67100
C           1.66200        -2.22300        -2.21500
C           1.83900        -2.25900        -0.78500
C           0.59700        -2.19000        -0.07400
H           0.53800        -2.04100         0.99300
S           3.39100        -1.67100        -0.28900
C           3.85900        -1.37400        -1.96500
C           2.80400        -1.70500        -2.89500
H           4.75600        -0.83100        -2.22800
H           2.79000        -1.34400        -3.92000
O          -2.40000         0.49000        -0.72000
H          -2.92000         1.52000        -0.76000

D 2 3 8 9 F

