%mem=10GB 
%nprocshared=8 
# opt=modredundant wb97xd/6-311+g(d,p) 

 pBTTT_-130.pdb

0  1
C          -4.25000        -1.36000        -0.21000
C          -2.93000        -0.95000        -0.61000
C          -1.97000        -2.05000        -0.62000
C          -4.33000        -2.76000         0.10000
H          -5.10000        -0.70000        -0.14000
S          -2.80000        -3.56000        -0.11000
H          -5.23000        -3.27000         0.41000
C          -0.56000        -2.13000        -0.97000
S           0.07000        -3.37600        -2.09100
C           1.69300        -2.79100        -1.96300
C           1.79500        -1.63800        -1.10400
C           0.53100        -1.24700        -0.55400
H           0.38400        -0.31800        -0.02400
S           3.15100        -0.63300        -1.49500
C           3.63200        -1.72000        -2.79900
C           2.72800        -2.83900        -2.94200
H           4.40100        -1.46200        -3.51400
H           2.69100        -3.45300        -3.83800
O          -2.40000         0.49000        -0.72000
H          -2.92000         1.52000        -0.76000

D 2 3 8 9 F

