%mem=100GB 
%nprocshared=16 
# opt=modredundant b3lyp/6-311+g(d,p) scrf=(pcm, solvent=water) 

 NDI_-50.pdb

0  1
C          -2.56300        -2.99400        -0.40900
C          -2.25700        -1.55100        -0.22400
C          -3.30100        -0.60700        -0.08300
C          -4.65000        -1.02400        -0.11500
C          -4.99200        -2.45900        -0.30400
C          -0.94900        -1.13700        -0.21500
C          -2.96200         0.76400         0.10200
C          -1.59500         1.18800         0.12300
C          -0.56100         0.23200        -0.07200
C          -1.32800         2.61600         0.44600
C          -3.77700         3.11500         0.50800
C          -4.03500         1.67900         0.26800
C          -5.35600         1.25200         0.23000
C          -5.67200        -0.09800         0.03600
H          -6.69900        -0.44200         0.00800
H          -6.13300         1.99700         0.36100
H          -0.19000        -1.89500        -0.36900
N          -2.43200         3.47600         0.60800
N          -3.91600        -3.35300        -0.43800
O          -1.69500        -3.84700        -0.53200
O          -6.14900        -2.85000        -0.34000
O          -4.67600         3.93800         0.62900
O          -0.21200         3.09700         0.59600
C          -2.11100         4.87500         0.91200
H          -1.54000         4.93100         1.84000
H          -1.50000         5.29900         0.11100
H          -3.05000         5.41400         1.00300
C          -4.20600        -4.77900        -0.62500
H          -3.75900        -5.12600        -1.55900
H          -3.77500        -5.35500         0.19600
H          -5.28600        -4.89700        -0.64900
C           0.87600         0.48200        -0.17800
C           1.58300         1.37700        -0.95700
S           1.98900        -0.58100         0.68400
C           2.98000         1.22300        -0.86500
H           1.10300         2.12500        -1.56800
C           3.39400         0.20300        -0.00200
O           3.92000         1.95600        -1.52000
C           4.73800        -0.17000         0.33500
C           3.47000         3.07600        -2.27700
C           5.14900        -1.20100         1.17700
S           6.15500         0.66500        -0.29800
H           4.36900         3.56800        -2.64800
H           2.85300         2.75900        -3.12600
H           2.89800         3.77300        -1.65300
C           6.56200        -1.31800         1.31000
O           4.21200        -1.97800         1.78100
C           7.22400        -0.37600         0.57000
H           7.06000        -2.05900         1.92000
C           4.66200        -3.04600         2.60800
H           8.29300        -0.23900         0.48600
H           5.24500        -2.67200         3.45900
H           3.76400        -3.54200         2.97400
H           5.26700        -3.76200         2.03800

D 8 9 32 33 F

