%mem=100GB 
%nprocshared=16 
# opt=modredundant b3lyp/6-311+g(d,p) scrf=(pcm, solvent=water) 

 NDI_-95.pdb

0  1
C          -2.56300        -2.99400        -0.40900
C          -2.25700        -1.55100        -0.22400
C          -3.30100        -0.60700        -0.08300
C          -4.65000        -1.02400        -0.11500
C          -4.99200        -2.45900        -0.30400
C          -0.94900        -1.13700        -0.21500
C          -2.96200         0.76400         0.10200
C          -1.59500         1.18800         0.12300
C          -0.56100         0.23200        -0.07200
C          -1.32800         2.61600         0.44600
C          -3.77700         3.11500         0.50800
C          -4.03500         1.67900         0.26800
C          -5.35600         1.25200         0.23000
C          -5.67200        -0.09800         0.03600
H          -6.69900        -0.44200         0.00800
H          -6.13300         1.99700         0.36100
H          -0.19000        -1.89500        -0.36900
N          -2.43200         3.47600         0.60800
N          -3.91600        -3.35300        -0.43800
O          -1.69500        -3.84700        -0.53200
O          -6.14900        -2.85000        -0.34000
O          -4.67600         3.93800         0.62900
O          -0.21200         3.09700         0.59600
C          -2.11100         4.87500         0.91200
H          -1.54000         4.93100         1.84000
H          -1.50000         5.29900         0.11100
H          -3.05000         5.41400         1.00300
C          -4.20600        -4.77900        -0.62500
H          -3.75900        -5.12600        -1.55900
H          -3.77500        -5.35500         0.19600
H          -5.28600        -4.89700        -0.64900
C           0.87600         0.48200        -0.17800
C           1.68400         0.65500        -1.28500
S           1.85800         0.42900         1.28600
C           3.05500         0.74900        -0.97200
H           1.29500         0.72000        -2.28800
C           3.34400         0.65700         0.39300
O           4.07600         0.91500        -1.85400
C           4.62800         0.75800         1.02700
C           3.73600         1.14800        -3.21800
C           4.91700         0.64300         2.38500
S           6.11800         1.06000         0.13700
H           4.67800         1.33400        -3.73400
H           3.24600         0.27200        -3.66000
H           3.08000         2.02100        -3.31900
C           6.29700         0.79400         2.70300
O           3.90600         0.41100         3.26200
C           7.05600         1.02200         1.58600
H           6.70500         0.73500         3.70200
C           4.23600         0.26300         4.63900
H           8.12600         1.17000         1.53800
H           4.69200         1.17700         5.03900
H           3.29600         0.07100         5.15500
H           4.91700        -0.58200         4.79600

D 8 9 32 33 F

