%mem=100GB 
%nprocshared=16 
# opt=modredundant b3lyp/6-311+g(d,p) scrf=(pcm, solvent=water) 

 NDI_45.pdb

0  1
C          -2.56300        -2.99400        -0.40900
C          -2.25700        -1.55100        -0.22400
C          -3.30100        -0.60700        -0.08300
C          -4.65000        -1.02400        -0.11500
C          -4.99200        -2.45900        -0.30400
C          -0.94900        -1.13700        -0.21500
C          -2.96200         0.76400         0.10200
C          -1.59500         1.18800         0.12300
C          -0.56100         0.23200        -0.07200
C          -1.32800         2.61600         0.44600
C          -3.77700         3.11500         0.50800
C          -4.03500         1.67900         0.26800
C          -5.35600         1.25200         0.23000
C          -5.67200        -0.09800         0.03600
H          -6.69900        -0.44200         0.00800
H          -6.13300         1.99700         0.36100
H          -0.19000        -1.89500        -0.36900
N          -2.43200         3.47600         0.60800
N          -3.91600        -3.35300        -0.43800
O          -1.69500        -3.84700        -0.53200
O          -6.14900        -2.85000        -0.34000
O          -4.67600         3.93800         0.62900
O          -0.21200         3.09700         0.59600
C          -2.11100         4.87500         0.91200
H          -1.54000         4.93100         1.84000
H          -1.50000         5.29900         0.11100
H          -3.05000         5.41400         1.00300
C          -4.20600        -4.77900        -0.62500
H          -3.75900        -5.12600        -1.55900
H          -3.77500        -5.35500         0.19600
H          -5.28600        -4.89700        -0.64900
C           0.87600         0.48200        -0.17800
C           1.71200         1.28400         0.57500
S           1.75700        -0.19100        -1.55000
C           3.02600         1.35500         0.07200
H           1.38500         1.79500         1.46500
C           3.24500         0.60100        -1.08500
O           4.05700         2.06800         0.60000
C           4.47500         0.43600        -1.80600
C           3.83900         2.70800         1.85500
C           4.68600        -0.29800        -2.97200
S           5.99200         1.17400        -1.29900
H           4.79500         3.14800         2.13700
H           3.08500         3.50000         1.77000
H           3.52400         1.98600         2.61800
C           6.02800        -0.26700        -3.44500
O           3.64200        -0.95800        -3.53900
C           6.83700         0.48800        -2.64000
H           6.37600        -0.77600        -4.33400
C           3.88000        -1.66900        -4.74900
H           7.89300         0.68200        -2.76500
H           4.61500        -2.47000        -4.60100
H           2.92300        -2.10500        -5.03500
H           4.22700        -0.99700        -5.54300

D 8 9 32 33 F

