%mem=10GB 
%nprocshared=8 
# opt=modredundant wb97xd/6-311+g(d,p) 

 pg2T_TT_-175.pdb

0  1
C          -4.25000        -1.36000        -0.21000
C          -2.93000        -0.95000        -0.61000
C          -1.97000        -2.05000        -0.62000
C          -4.33000        -2.76000         0.10000
S          -2.80000        -3.56000        -0.11000
H          -5.23000        -3.27000         0.41000
C          -0.56000        -2.13000        -0.97000
S           0.32300        -3.68700        -1.00000
C           1.80400        -2.93400        -1.48000
C           1.66500        -1.51100        -1.65500
C           0.33600        -1.04900        -1.38700
H           0.00200        -0.05000        -1.62100
S           2.82200        -0.85800        -2.76800
C           3.53500        -2.45300        -3.02300
C           2.85900        -3.48300        -2.26800
H           4.26300        -2.64400        -3.79800
H           2.96300        -4.54100        -2.49400
H          -2.89000         0.24000        -0.97000
O          -5.60000        -0.36000        -0.40000
H          -5.76000         0.85000        -0.75000

D 2 3 7 8 F

