%mem=10GB 
%nprocshared=8 
# opt=modredundant wb97xd/6-311+g(d,p) 

 pg2T_TT_-15.pdb

0  1
C          -4.25000        -1.36000        -0.21000
C          -2.93000        -0.95000        -0.61000
C          -1.97000        -2.05000        -0.62000
C          -4.33000        -2.76000         0.10000
S          -2.80000        -3.56000        -0.11000
H          -5.23000        -3.27000         0.41000
C          -0.56000        -2.13000        -0.97000
S           0.26500        -0.83100        -1.88400
C           1.78200        -1.66200        -1.86000
C           1.71200        -2.91200        -1.14700
C           0.40400        -3.17800        -0.62700
H           0.19900        -3.97800         0.06800
S           3.24200        -3.39600        -0.49400
C           4.02500        -1.96100        -1.16100
C           3.09500        -1.10400        -1.86100
H           5.03600        -1.68000        -0.90300
H           3.31600        -0.06700        -2.09700
H          -2.89000         0.24000        -0.97000
O          -5.60000        -0.36000        -0.40000
H          -5.76000         0.85000        -0.75000

D 2 3 7 8 F

