%mem=10GB 
%nprocshared=8 
# opt=modredundant wb97xd/6-311+g(d,p) 

 NDI_-30.pdb

0  1
C          -2.56000        -2.99000        -0.41000
C          -2.26000        -1.55000        -0.22000
C          -3.30000        -0.61000        -0.08000
C          -4.65000        -1.02000        -0.12000
C          -4.99000        -2.46000        -0.30000
C          -0.95000        -1.14000        -0.22000
C          -2.96000         0.76000         0.10000
C          -1.60000         1.19000         0.12000
C          -0.56000         0.23000        -0.07000
C          -1.33000         2.62000         0.45000
C          -3.78000         3.12000         0.51000
C          -4.03000         1.68000         0.27000
C          -5.36000         1.25000         0.23000
C          -5.67000        -0.10000         0.04000
H          -6.70000        -0.44000         0.01000
H          -6.13000         2.00000         0.36000
H          -0.19000        -1.90000        -0.37000
N          -2.43000         3.48000         0.61000
N          -3.92000        -3.35000        -0.44000
O          -1.69000        -3.85000        -0.53000
O          -6.15000        -2.85000        -0.34000
O          -4.68000         3.94000         0.63000
O          -0.21000         3.10000         0.60000
C           0.88000         0.48000        -0.18000
C           1.56900         1.56800        -0.66500
S           1.99900        -0.81700         0.22200
C           2.96700         1.37100        -0.71900
H           1.09000         2.48900        -0.97500
C           3.38700         0.12400        -0.24900
O           3.89500         2.27200        -1.15600
C           4.73600        -0.36100        -0.14100
C           5.15500        -1.61600         0.29800
S           6.14500         0.61300        -0.54900
C           6.56400        -1.78900         0.30600
O           4.22500        -2.53000         0.67300
C           7.22400        -0.66500        -0.13400
H           7.07400        -2.68900         0.60800
H           8.29400        -0.52400        -0.22800
H           4.49000        -3.57700         0.76400
H           3.52100         3.20500        -1.20600
H          -4.23000        -4.36000        -0.17000
H          -2.15000         4.41000         0.36000

D 8 9 24 25 F

