%mem=10GB 
%nprocshared=8 
# opt=modredundant wb97xd/6-311+g(d,p) 

 NDI_180.pdb

0  1
C          -2.56000        -2.99000        -0.41000
C          -2.26000        -1.55000        -0.22000
C          -3.30000        -0.61000        -0.08000
C          -4.65000        -1.02000        -0.12000
C          -4.99000        -2.46000        -0.30000
C          -0.95000        -1.14000        -0.22000
C          -2.96000         0.76000         0.10000
C          -1.60000         1.19000         0.12000
C          -0.56000         0.23000        -0.07000
C          -1.33000         2.62000         0.45000
C          -3.78000         3.12000         0.51000
C          -4.03000         1.68000         0.27000
C          -5.36000         1.25000         0.23000
C          -5.67000        -0.10000         0.04000
H          -6.70000        -0.44000         0.01000
H          -6.13000         2.00000         0.36000
H          -0.19000        -1.90000        -0.37000
N          -2.43000         3.48000         0.61000
N          -3.92000        -3.35000        -0.44000
O          -1.69000        -3.85000        -0.53000
O          -6.15000        -2.85000        -0.34000
O          -4.68000         3.94000         0.63000
O          -0.21000         3.10000         0.60000
C           0.88000         0.48000        -0.18000
C           1.93200        -0.38900        -0.36200
S           1.48000         2.11200         0.08500
C           3.19700         0.23600        -0.28700
H           1.80600        -1.44900        -0.54500
C           3.14200         1.61500        -0.06800
O           4.41000        -0.37400        -0.42600
C           4.24600         2.53200         0.01800
C           4.19500         3.90200         0.26700
S           5.92300         2.04400        -0.20800
C           5.46300         4.54000         0.27600
O           2.99000         4.49400         0.46500
C           6.48800         3.65300         0.03900
H           5.62500         5.59000         0.45400
H           7.54800         3.86900        -0.00900
H           2.92900         5.47900         0.91400
H           4.32800        -1.28600        -0.84400
H          -4.23000        -4.36000        -0.17000
H          -2.15000         4.41000         0.36000

D 8 9 24 25 F

