%mem=10GB 
%nprocshared=8 
# opt=modredundant wb97xd/6-311+g(d,p) 

 NDI_-170.pdb

0  1
C          -2.56000        -2.99000        -0.41000
C          -2.26000        -1.55000        -0.22000
C          -3.30000        -0.61000        -0.08000
C          -4.65000        -1.02000        -0.12000
C          -4.99000        -2.46000        -0.30000
C          -0.95000        -1.14000        -0.22000
C          -2.96000         0.76000         0.10000
C          -1.60000         1.19000         0.12000
C          -0.56000         0.23000        -0.07000
C          -1.33000         2.62000         0.45000
C          -3.78000         3.12000         0.51000
C          -4.03000         1.68000         0.27000
C          -5.36000         1.25000         0.23000
C          -5.67000        -0.10000         0.04000
H          -6.70000        -0.44000         0.01000
H          -6.13000         2.00000         0.36000
H          -0.19000        -1.90000        -0.37000
N          -2.43000         3.48000         0.61000
N          -3.92000        -3.35000        -0.44000
O          -1.69000        -3.85000        -0.53000
O          -6.15000        -2.85000        -0.34000
O          -4.68000         3.94000         0.63000
O          -0.21000         3.10000         0.60000
C           0.88000         0.48000        -0.18000
C           1.91200        -0.35600        -0.54000
S           1.51200         2.03700         0.34100
C           3.18900         0.23400        -0.39800
H           1.76500        -1.36800        -0.89700
C           3.16100         1.55500         0.05400
O           4.38800        -0.35700        -0.67600
C           4.28100         2.43200         0.26100
C           4.25900         3.74000         0.74200
S           5.94400         1.97300        -0.09600
C           5.53700         4.35500         0.82000
O           3.07000         4.30200         1.07500
C           6.54000         3.51000         0.40400
H           5.72000         5.35700         1.16900
H           7.60200         3.72000         0.36100
H           3.03700         5.19700         1.68600
H           4.28000        -1.18300        -1.24100
H          -4.23000        -4.36000        -0.17000
H          -2.15000         4.41000         0.36000

D 8 9 24 25 F

