%mem=10GB 
%nprocshared=8 
# opt=modredundant wb97xd/6-311+g(d,p) 

 NDI_-50.pdb

0  1
C          -2.56000        -2.99000        -0.41000
C          -2.26000        -1.55000        -0.22000
C          -3.30000        -0.61000        -0.08000
C          -4.65000        -1.02000        -0.12000
C          -4.99000        -2.46000        -0.30000
C          -0.95000        -1.14000        -0.22000
C          -2.96000         0.76000         0.10000
C          -1.60000         1.19000         0.12000
C          -0.56000         0.23000        -0.07000
C          -1.33000         2.62000         0.45000
C          -3.78000         3.12000         0.51000
C          -4.03000         1.68000         0.27000
C          -5.36000         1.25000         0.23000
C          -5.67000        -0.10000         0.04000
H          -6.70000        -0.44000         0.01000
H          -6.13000         2.00000         0.36000
H          -0.19000        -1.90000        -0.37000
N          -2.43000         3.48000         0.61000
N          -3.92000        -3.35000        -0.44000
O          -1.69000        -3.85000        -0.53000
O          -6.15000        -2.85000        -0.34000
O          -4.68000         3.94000         0.63000
O          -0.21000         3.10000         0.60000
C           0.88000         0.48000        -0.18000
C           1.58100         1.36700        -0.96500
S           1.99100        -0.56600         0.69500
C           2.98200         1.21300        -0.87400
H           1.10800         2.11200        -1.59300
C           3.39100         0.21100         0.01000
O           3.92200         1.94700        -1.53800
C           4.73800        -0.16100         0.34800
C           5.14900        -1.18000         1.20500
S           6.15500         0.67000        -0.28700
C           6.55700        -1.29000         1.34800
O           4.21200        -1.94800         1.81600
C           7.22600        -0.35600         0.59100
H           7.06000        -2.01700         1.96200
H           8.29700        -0.21600         0.51200
H           4.48600        -2.89400         2.26800
H           3.53700         2.79600        -1.92000
H          -4.23000        -4.36000        -0.17000
H          -2.15000         4.41000         0.36000

D 8 9 24 25 F

