%mem=10GB 
%nprocshared=8 
# opt=modredundant wb97xd/6-311+g(d,p) 

 NDI_160.pdb

0  1
C          -2.56000        -2.99000        -0.41000
C          -2.26000        -1.55000        -0.22000
C          -3.30000        -0.61000        -0.08000
C          -4.65000        -1.02000        -0.12000
C          -4.99000        -2.46000        -0.30000
C          -0.95000        -1.14000        -0.22000
C          -2.96000         0.76000         0.10000
C          -1.60000         1.19000         0.12000
C          -0.56000         0.23000        -0.07000
C          -1.33000         2.62000         0.45000
C          -3.78000         3.12000         0.51000
C          -4.03000         1.68000         0.27000
C          -5.36000         1.25000         0.23000
C          -5.67000        -0.10000         0.04000
H          -6.70000        -0.44000         0.01000
H          -6.13000         2.00000         0.36000
H          -0.19000        -1.90000        -0.37000
N          -2.43000         3.48000         0.61000
N          -3.92000        -3.35000        -0.44000
O          -1.69000        -3.85000        -0.53000
O          -6.15000        -2.85000        -0.34000
O          -4.68000         3.94000         0.63000
O          -0.21000         3.10000         0.60000
C           0.88000         0.48000        -0.18000
C           1.95500        -0.36100        -0.00200
S           1.43600         2.12700        -0.44800
C           3.20200         0.29700        -0.07400
H           1.85700        -1.42500         0.17600
C           3.11200         1.66700        -0.33500
O           4.43200        -0.28000         0.06700
C           4.19400         2.59800        -0.50300
C           4.10700         3.97000        -0.73400
S           5.89000         2.12300        -0.46200
C           5.36200         4.61900        -0.87200
O           2.88300         4.55100        -0.81100
C           6.41300         3.74100        -0.74100
H           5.49500         5.67300        -1.04900
H           7.47000         3.96600        -0.80100
H           2.77800         5.62600        -0.72500
H           4.39000        -1.28200        -0.02400
H          -4.23000        -4.36000        -0.17000
H          -2.15000         4.41000         0.36000

D 8 9 24 25 F

