%mem=10GB 
%nprocshared=8 
# opt=modredundant wb97xd/6-311+g(d,p) 

 NDI_-140.pdb

0  1
C          -2.56000        -2.99000        -0.41000
C          -2.26000        -1.55000        -0.22000
C          -3.30000        -0.61000        -0.08000
C          -4.65000        -1.02000        -0.12000
C          -4.99000        -2.46000        -0.30000
C          -0.95000        -1.14000        -0.22000
C          -2.96000         0.76000         0.10000
C          -1.60000         1.19000         0.12000
C          -0.56000         0.23000        -0.07000
C          -1.33000         2.62000         0.45000
C          -3.78000         3.12000         0.51000
C          -4.03000         1.68000         0.27000
C          -5.36000         1.25000         0.23000
C          -5.67000        -0.10000         0.04000
H          -6.70000        -0.44000         0.01000
H          -6.13000         2.00000         0.36000
H          -0.19000        -1.90000        -0.37000
N          -2.43000         3.48000         0.61000
N          -3.92000        -3.35000        -0.44000
O          -1.69000        -3.85000        -0.53000
O          -6.15000        -2.85000        -0.34000
O          -4.68000         3.94000         0.63000
O          -0.21000         3.10000         0.60000
C           0.88000         0.48000        -0.18000
C           1.83000        -0.08500        -0.99900
S           1.64200         1.56800         0.97400
C           3.14700         0.33900        -0.71000
H           1.59600        -0.78700        -1.79000
C           3.23300         1.26600         0.33200
O           4.28400        -0.05600        -1.35400
C           4.41600         1.91000         0.83500
C           4.50800         2.81100         1.89300
S           6.01600         1.66100         0.14200
C           5.82300         3.28700         2.14000
O           3.38400         3.15400         2.57100
C           6.74000         2.74300         1.27000
H           6.09100         3.98400         2.91600
H           7.80600         2.93000         1.23500
H           3.45100         3.63100         3.54100
H           4.08400        -0.49500        -2.23700
H          -4.23000        -4.36000        -0.17000
H          -2.15000         4.41000         0.36000

D 8 9 24 25 F

