%mem=10GB 
%nprocshared=8 
# opt=modredundant wb97xd/6-311+g(d,p) 

 NDI_70.pdb

0  1
C          -2.56000        -2.99000        -0.41000
C          -2.26000        -1.55000        -0.22000
C          -3.30000        -0.61000        -0.08000
C          -4.65000        -1.02000        -0.12000
C          -4.99000        -2.46000        -0.30000
C          -0.95000        -1.14000        -0.22000
C          -2.96000         0.76000         0.10000
C          -1.60000         1.19000         0.12000
C          -0.56000         0.23000        -0.07000
C          -1.33000         2.62000         0.45000
C          -3.78000         3.12000         0.51000
C          -4.03000         1.68000         0.27000
C          -5.36000         1.25000         0.23000
C          -5.67000        -0.10000         0.04000
H          -6.70000        -0.44000         0.01000
H          -6.13000         2.00000         0.36000
H          -0.19000        -1.90000        -0.37000
N          -2.43000         3.48000         0.61000
N          -3.92000        -3.35000        -0.44000
O          -1.69000        -3.85000        -0.53000
O          -6.15000        -2.85000        -0.34000
O          -4.68000         3.94000         0.63000
O          -0.21000         3.10000         0.60000
C           0.88000         0.48000        -0.18000
C           1.79600         0.88900         0.76200
S           1.63500         0.40300        -1.76700
C           3.07900         1.14100         0.22700
H           1.56000         1.00700         1.81300
C           3.18300         0.90600        -1.14600
O           4.17800         1.55900         0.92200
C           4.35400         1.03200        -1.96900
C           4.45300         0.82800        -3.34400
S           5.93700         1.47000        -1.33200
C           5.75800         1.01700        -3.87000
O           3.34400         0.47200        -4.04100
C           6.66000         1.37300        -2.89300
H           6.02800         0.90800        -4.90700
H           7.71600         1.57800        -3.01500
H           3.32200         0.56200        -5.12100
H           4.06700         1.43200         1.91500
H          -4.23000        -4.36000        -0.17000
H          -2.15000         4.41000         0.36000

D 8 9 24 25 F

