%mem=10GB 
%nprocshared=8 
# opt=modredundant wb97xd/6-311+g(d,p) 

 NDI_-100.pdb

0  1
C          -2.56000        -2.99000        -0.41000
C          -2.26000        -1.55000        -0.22000
C          -3.30000        -0.61000        -0.08000
C          -4.65000        -1.02000        -0.12000
C          -4.99000        -2.46000        -0.30000
C          -0.95000        -1.14000        -0.22000
C          -2.96000         0.76000         0.10000
C          -1.60000         1.19000         0.12000
C          -0.56000         0.23000        -0.07000
C          -1.33000         2.62000         0.45000
C          -3.78000         3.12000         0.51000
C          -4.03000         1.68000         0.27000
C          -5.36000         1.25000         0.23000
C          -5.67000        -0.10000         0.04000
H          -6.70000        -0.44000         0.01000
H          -6.13000         2.00000         0.36000
H          -0.19000        -1.90000        -0.37000
N          -2.43000         3.48000         0.61000
N          -3.92000        -3.35000        -0.44000
O          -1.69000        -3.85000        -0.53000
O          -6.15000        -2.85000        -0.34000
O          -4.68000         3.94000         0.63000
O          -0.21000         3.10000         0.60000
C           0.88000         0.48000        -0.18000
C           1.69800         0.55400        -1.28500
S           1.83800         0.58200         1.29200
C           3.06700         0.68600        -0.96300
H           1.33100         0.51600        -2.30300
C           3.33000         0.74100         0.40800
O           4.10100         0.77900        -1.85000
C           4.60600         0.90900         1.04800
C           4.87400         0.93300         2.41500
S           6.10700         1.14300         0.15700
C           6.24300         1.13300         2.73800
O           3.85100         0.77800         3.29300
C           7.02400         1.25600         1.61200
H           6.64200         1.17600         3.73700
H           8.09400         1.41300         1.56700
H           4.04900         0.53100         4.32900
H           3.78300         1.00300        -2.77800
H          -4.23000        -4.36000        -0.17000
H          -2.15000         4.41000         0.36000

D 8 9 24 25 F

