%mem=10GB
%nprocshared=4
# opt=modredundant b3lyp/6-311+g(d,p)

 OBT_-90.pdb

0  1
C          -0.69500         9.13200         1.34700
C          -1.48600         9.22100         2.43000
C          -2.89600         9.41300         2.09300
C          -3.10300         9.46200         0.74100
S          -1.60500         9.28300        -0.21100
O          -1.02100         9.14100         3.70300
H          -3.69800         9.50600         2.81300
C           0.78300         8.92300         1.38200
C           1.44600         7.68800         1.38500
C           2.84700         7.80000         1.43000
C           3.29700         9.11000         1.47100
S           1.96200        10.13500         1.44200
O           0.78600         6.50500         1.35200
H           3.51700         6.95000         1.44100
C          -1.82300         9.22700         4.82200
H          -2.56500         8.40100         4.82300
H          -2.35000        10.20600         4.84000
C           1.38800         5.26500         1.35500
H           2.00400         5.14100         2.27200
H           2.02300         5.14500         0.45200
C           4.70700         9.51900         1.53500
C           5.18600        10.82200         1.60700
C           6.58300        10.89200         1.66000
C           7.20500         9.65000         1.63000
S           6.02000         8.46300         1.54100
H           4.55000        11.69800         1.62200
H           7.12900        11.82400         1.71900
H          -4.08100         9.59500         0.30000
H           8.27100         9.47400         1.66000
H          -1.19300         9.14400         5.73100
H           0.60300         4.48200         1.34700

D 5 1 8 9 F

