%mem=10GB
%nprocshared=4
# opt=modredundant b3lyp/6-311+g(d,p)

 OBT_30.pdb

0  1
C          -0.69500         9.13200         1.34700
C          -1.31000        10.19200         0.79700
C          -2.76600        10.13600         0.92100
C          -3.18700         9.00800         1.57300
S          -1.84800         7.93900         2.07300
O          -0.64600        11.20900         0.19100
H          -3.44900        10.88900         0.55200
C           0.78300         8.92300         1.38200
C           1.44600         7.68800         1.38500
C           2.84700         7.80000         1.43000
C           3.29700         9.11000         1.47100
S           1.96200        10.13500         1.44200
O           0.78600         6.50500         1.35200
H           3.51700         6.95000         1.44100
C          -1.26500        12.30500        -0.37300
H          -1.83000        12.86400         0.40400
H          -1.95700        11.98000        -1.18000
C           1.38800         5.26500         1.35500
H           2.00400         5.14100         2.27200
H           2.02300         5.14500         0.45200
C           4.70700         9.51900         1.53500
C           5.18600        10.82200         1.60700
C           6.58300        10.89200         1.66000
C           7.20500         9.65000         1.63000
S           6.02000         8.46300         1.54100
H           4.55000        11.69800         1.62200
H           7.12900        11.82400         1.71900
H          -4.23000         8.79200         1.76200
H           8.27100         9.47400         1.66000
H          -0.49800        12.97500        -0.80900
H           0.60300         4.48200         1.34700

D 5 1 8 9 F

