%mem=10GB
%nprocshared=4
# opt=modredundant b3lyp/6-311+g(d,p)

 OBT_-10.pdb

0  1
C          -0.69500         9.13200         1.34700
C          -1.31100        10.31000         1.54100
C          -2.76800        10.21300         1.46200
C          -3.18800         8.93500         1.20400
S          -1.84800         7.77100         1.03500
O          -0.64800        11.46800         1.78600
H          -3.45200        11.04000         1.59200
C           0.78300         8.92300         1.38200
C           1.44600         7.68800         1.38500
C           2.84700         7.80000         1.43000
C           3.29700         9.11000         1.47100
S           1.96200        10.13500         1.44200
O           0.78600         6.50500         1.35200
H           3.51700         6.95000         1.44100
C          -1.26800        12.68300         1.99200
H          -1.92200        12.62900         2.88800
H          -1.87200        12.95900         1.10100
C           1.38800         5.26500         1.35500
H           2.00400         5.14100         2.27200
H           2.02300         5.14500         0.45200
C           4.70700         9.51900         1.53500
C           5.18600        10.82200         1.60700
C           6.58300        10.89200         1.66000
C           7.20500         9.65000         1.63000
S           6.02000         8.46300         1.54100
H           4.55000        11.69800         1.62200
H           7.12900        11.82400         1.71900
H          -4.23200         8.66600         1.11300
H           8.27100         9.47400         1.66000
H          -0.49900        13.46400         2.15700
H           0.60300         4.48200         1.34700

D 5 1 8 9 F

