%mem=10GB
%nprocshared=4
# opt=modredundant b3lyp/6-311+g(d,p)

 OBT_-170.pdb

0  1
C          -0.69500         9.13200         1.34700
C          -1.61300         8.16200         1.49900
C          -2.98700         8.65700         1.40600
C          -3.03700        10.00700         1.18500
S          -1.42600        10.76600         1.08100
O          -1.29700         6.86000         1.71600
H          -3.87300         8.04300         1.49500
C           0.78300         8.92300         1.38200
C           1.44600         7.68800         1.38500
C           2.84700         7.80000         1.43000
C           3.29700         9.11000         1.47100
S           1.96200        10.13500         1.44200
O           0.78600         6.50500         1.35200
H           3.51700         6.95000         1.44100
C          -2.22900         5.85600         1.86800
H          -2.84600         5.76600         0.94800
H          -2.88400         6.07100         2.74000
C           1.38800         5.26500         1.35500
H           2.00400         5.14100         2.27200
H           2.02300         5.14500         0.45200
C           4.70700         9.51900         1.53500
C           5.18600        10.82200         1.60700
C           6.58300        10.89200         1.66000
C           7.20500         9.65000         1.63000
S           6.02000         8.46300         1.54100
H           4.55000        11.69800         1.62200
H           7.12900        11.82400         1.71900
H          -3.96500        10.55300         1.08500
H           8.27100         9.47400         1.66000
H          -1.70600         4.89400         2.04500
H           0.60300         4.48200         1.34700

D 5 1 8 9 F

