%mem=10GB
%nprocshared=4
# opt=modredundant b3lyp/6-311+g(d,p)

 OBT_-160.pdb

0  1
C          -0.69500         9.13200         1.34700
C          -1.61100         8.20900         1.68500
C          -2.98500         8.68800         1.54200
C          -3.03800         9.98000         1.09300
S          -1.42900        10.70100         0.82100
O          -1.29200         6.96100         2.11500
H          -3.87100         8.10400         1.75600
C           0.78300         8.92300         1.38200
C           1.44600         7.68800         1.38500
C           2.84700         7.80000         1.43000
C           3.29700         9.11000         1.47100
S           1.96200        10.13500         1.44200
O           0.78600         6.50500         1.35200
H           3.51700         6.95000         1.44100
C          -2.22200         6.00400         2.46000
H          -2.86100         5.76100         1.58500
H          -2.85500         6.37000         3.29700
C           1.38800         5.26500         1.35500
H           2.00400         5.14100         2.27200
H           2.02300         5.14500         0.45200
C           4.70700         9.51900         1.53500
C           5.18600        10.82200         1.60700
C           6.58300        10.89200         1.66000
C           7.20500         9.65000         1.63000
S           6.02000         8.46300         1.54100
H           4.55000        11.69800         1.62200
H           7.12900        11.82400         1.71900
H          -3.96800        10.50600         0.92300
H           8.27100         9.47400         1.66000
H          -1.69700         5.08300         2.78700
H           0.60300         4.48200         1.34700

D 5 1 8 9 F

