%mem=10GB
%nprocshared=4
# opt=modredundant b3lyp/6-311+g(d,p)

 OBT_-50.pdb

0  1
C          -0.69500         9.13200         1.34700
C          -1.38000         9.92600         2.18600
C          -2.81900         9.92700         1.92500
C          -3.15500         9.11500         0.87500
S          -1.75100         8.30100         0.13400
O          -0.79600        10.65200         3.17300
H          -3.55100        10.49400         2.48600
C           0.78300         8.92300         1.38200
C           1.44600         7.68800         1.38500
C           2.84700         7.80000         1.43000
C           3.29700         9.11000         1.47100
S           1.96200        10.13500         1.44200
O           0.78600         6.50500         1.35200
H           3.51700         6.95000         1.44100
C          -1.48800        11.46700         4.04300
H          -2.21300        10.86600         4.63400
H          -2.02800        12.25800         3.47900
C           1.38800         5.26500         1.35500
H           2.00400         5.14100         2.27200
H           2.02300         5.14500         0.45200
C           4.70700         9.51900         1.53500
C           5.18600        10.82200         1.60700
C           6.58300        10.89200         1.66000
C           7.20500         9.65000         1.63000
S           6.02000         8.46300         1.54100
H           4.55000        11.69800         1.62200
H           7.12900        11.82400         1.71900
H          -4.17300         8.98400         0.53500
H           8.27100         9.47400         1.66000
H          -0.77400        11.95100         4.74000
H           0.60300         4.48200         1.34700

D 5 1 8 9 F

