%mem=10GB
%nprocshared=4
# opt=modredundant b3lyp/6-311+g(d,p)

 OBT_0.pdb

0  1
C          -0.69500         9.13200         1.34700
C          -1.30400        10.32900         1.35100
C          -2.76300        10.22900         1.32400
C          -3.19200         8.92900         1.30000
S          -1.85800         7.74400         1.30200
O          -0.63200        11.50900         1.37700
H          -3.44200        11.07100         1.32600
C           0.78300         8.92300         1.38200
C           1.44600         7.68800         1.38500
C           2.84700         7.80000         1.43000
C           3.29700         9.11000         1.47100
S           1.96200        10.13500         1.44200
O           0.78600         6.50500         1.35200
H           3.51700         6.95000         1.44100
C          -1.24500        12.74400         1.38500
H          -1.87700        12.84900         2.29300
H          -1.87100        12.86700         0.47500
C           1.38800         5.26500         1.35500
H           2.00400         5.14100         2.27200
H           2.02300         5.14500         0.45200
C           4.70700         9.51900         1.53500
C           5.18600        10.82200         1.60700
C           6.58300        10.89200         1.66000
C           7.20500         9.65000         1.63000
S           6.02000         8.46300         1.54100
H           4.55000        11.69800         1.62200
H           7.12900        11.82400         1.71900
H          -4.23700         8.65500         1.28100
H           8.27100         9.47400         1.66000
H          -0.47100        13.53700         1.39500
H           0.60300         4.48200         1.34700

D 5 1 8 9 F

