%mem=10GB
%nprocshared=4
# opt=modredundant b3lyp/6-311+g(d,p)

 OBT_-80.pdb

0  1
C          -0.69500         9.13200         1.34700
C          -1.45900         9.41100         2.41700
C          -2.87600         9.55100         2.08600
C          -3.11700         9.36700         0.75100
S          -1.64200         9.01900        -0.19200
O          -0.96300         9.54800         3.67300
H          -3.66000         9.77000         2.79900
C           0.78300         8.92300         1.38200
C           1.44600         7.68800         1.38500
C           2.84700         7.80000         1.43000
C           3.29700         9.11000         1.47100
S           1.96200        10.13500         1.44200
O           0.78600         6.50500         1.35200
H           3.51700         6.95000         1.44100
C          -1.73600         9.83000         4.77900
H          -2.48000         9.02000         4.94000
H          -2.26100        10.80000         4.64200
C           1.38800         5.26500         1.35500
H           2.00400         5.14100         2.27200
H           2.02300         5.14500         0.45200
C           4.70700         9.51900         1.53500
C           5.18600        10.82200         1.60700
C           6.58300        10.89200         1.66000
C           7.20500         9.65000         1.63000
S           6.02000         8.46300         1.54100
H           4.55000        11.69800         1.62200
H           7.12900        11.82400         1.71900
H          -4.10500         9.42900         0.31700
H           8.27100         9.47400         1.66000
H          -1.08500         9.90100         5.67400
H           0.60300         4.48200         1.34700

D 5 1 8 9 F

