%mem=10GB
%nprocshared=4
# opt=modredundant b3lyp/6-311+g(d,p)

 OBT_-60.pdb

0  1
C          -0.69500         9.13200         1.34700
C          -1.40500         9.76900         2.29300
C          -2.83800         9.81200         2.00100
C          -3.14300         9.19100         0.81900
S          -1.71700         8.52000        -0.01700
O          -0.84900        10.31500         3.40400
H          -3.58500        10.27200         2.63200
C           0.78300         8.92300         1.38200
C           1.44600         7.68800         1.38500
C           2.84700         7.80000         1.43000
C           3.29700         9.11000         1.47100
S           1.96200        10.13500         1.44200
O           0.78600         6.50500         1.35200
H           3.51700         6.95000         1.44100
C          -1.56700        10.96700         4.38400
H          -2.30100        10.27200         4.84400
H          -2.09700        11.84200         3.95100
C           1.38800         5.26500         1.35500
H           2.00400         5.14100         2.27200
H           2.02300         5.14500         0.45200
C           4.70700         9.51900         1.53500
C           5.18600        10.82200         1.60700
C           6.58300        10.89200         1.66000
C           7.20500         9.65000         1.63000
S           6.02000         8.46300         1.54100
H           4.55000        11.69800         1.62200
H           7.12900        11.82400         1.71900
H          -4.15200         9.11900         0.43600
H           8.27100         9.47400         1.66000
H          -0.87200        11.32600         5.17100
H           0.60300         4.48200         1.34700

D 5 1 8 9 F

