%mem=10GB
%nprocshared=4
# opt=modredundant b3lyp/6-311+g(d,p)

 OBT_-130.pdb

0  1
C          -0.69500         9.13200         1.34700
C          -1.57800         8.52500         2.15800
C          -2.96200         8.91200         1.88800
C          -3.05600         9.81400         0.86300
S          -1.47600        10.25700         0.16300
O          -1.21900         7.64400         3.12700
H          -3.82500         8.53800         2.42200
C           0.78300         8.92300         1.38200
C           1.44600         7.68800         1.38500
C           2.84700         7.80000         1.43000
C           3.29700         9.11000         1.47100
S           1.96200        10.13500         1.44200
O           0.78600         6.50500         1.35200
H           3.51700         6.95000         1.44100
C          -2.11500         7.01100         3.96300
H          -2.81500         6.38600         3.36700
H          -2.68800         7.76200         4.54900
C           1.38800         5.26500         1.35500
H           2.00400         5.14100         2.27200
H           2.02300         5.14500         0.45200
C           4.70700         9.51900         1.53500
C           5.18600        10.82200         1.60700
C           6.58300        10.89200         1.66000
C           7.20500         9.65000         1.63000
S           6.02000         8.46300         1.54100
H           4.55000        11.69800         1.62200
H           7.12900        11.82400         1.71900
H          -3.99900        10.21500         0.51700
H           8.27100         9.47400         1.66000
H          -1.56200         6.35700         4.66600
H           0.60300         4.48200         1.34700

D 5 1 8 9 F

