%mem=10GB
%nprocshared=4
# opt=modredundant b3lyp/6-311+g(d,p)

 OBT_170.pdb

0  1
C          -0.69500         9.13200         1.34700
C          -1.60300         8.16900         1.11700
C          -2.97900         8.66500         1.12900
C          -3.04100        10.01100         1.37600
S          -1.43900        10.76000         1.61400
O          -1.27600         6.87000         0.89500
H          -3.85800         8.05800         0.96200
C           0.78300         8.92300         1.38200
C           1.44600         7.68800         1.38500
C           2.84700         7.80000         1.43000
C           3.29700         9.11000         1.47100
S           1.96200        10.13500         1.44200
O           0.78600         6.50500         1.35200
H           3.51700         6.95000         1.44100
C          -2.19700         5.87300         0.65300
H          -2.76900         6.10000        -0.27200
H          -2.89600         5.78100         1.51300
C           1.38800         5.26500         1.35500
H           2.00400         5.14100         2.27200
H           2.02300         5.14500         0.45200
C           4.70700         9.51900         1.53500
C           5.18600        10.82200         1.60700
C           6.58300        10.89200         1.66000
C           7.20500         9.65000         1.63000
S           6.02000         8.46300         1.54100
H           4.55000        11.69800         1.62200
H           7.12900        11.82400         1.71900
H          -3.97200        10.55900         1.42000
H           8.27100         9.47400         1.66000
H          -1.66800         4.90900         0.51900
H           0.60300         4.48200         1.34700

D 5 1 8 9 F

