%mem=100GB 
%nprocshared=8 
# opt=modredundant wb97xd/6-311+g(d,p) 

 pBTTT_45.pdb

0  1
C          -4.25000        -1.36000        -0.21000
C          -2.93000        -0.95000        -0.61000
C          -1.97000        -2.05000        -0.62000
C          -2.66000         0.47000        -0.96000
C          -4.33000        -2.76000         0.10000
H          -5.10000        -0.70000        -0.14000
S          -2.80000        -3.56000        -0.11000
H          -5.23000        -3.27000         0.41000
C          -0.56000        -2.13000        -0.97000
S           0.62600        -0.91100        -0.41100
C           1.94200        -1.70500        -1.20600
C           1.53000        -2.90900        -1.88100
C           0.12800        -3.16800        -1.74100
H          -0.33000        -4.09900        -2.03600
S           2.81800        -4.05400        -2.05100
C           3.94700        -2.96300        -1.24400
C           3.31600        -1.73200        -0.82600
H           4.93700        -3.27500        -0.94000
H           3.75700        -1.06800        -0.08800
H          -3.55000         1.09000        -0.83000
H          -2.35000         0.56000        -2.00000
H          -1.88000         0.89000        -0.31000

D 2 3 9 10 F

