%mem=100GB 
%nprocshared=8 
# opt=modredundant wb97xd/6-311+g(d,p) 

 pBTTT_170.pdb

0  1
C          -4.25000        -1.36000        -0.21000
C          -2.93000        -0.95000        -0.61000
C          -1.97000        -2.05000        -0.62000
C          -2.66000         0.47000        -0.96000
C          -4.33000        -2.76000         0.10000
H          -5.10000        -0.70000        -0.14000
S          -2.80000        -3.56000        -0.11000
H          -5.23000        -3.27000         0.41000
C          -0.56000        -2.13000        -0.97000
S           0.42000        -3.58800        -0.62900
C           1.84800        -2.89200        -1.31500
C           1.61700        -1.56900        -1.83700
C           0.26200        -1.13700        -1.66400
H          -0.13600        -0.25000        -2.13300
S           2.72200        -1.14900        -3.10300
C           3.53400        -2.71000        -2.96700
C           2.93000        -3.55600        -1.96300
H           4.26800        -3.04600        -3.68600
H           3.10100        -4.62900        -1.91900
H          -3.55000         1.09000        -0.83000
H          -2.35000         0.56000        -2.00000
H          -1.88000         0.89000        -0.31000

D 2 3 9 10 F

