%mem=100GB 
%nprocshared=8 
# opt=modredundant wb97xd/6-311+g(d,p) 

 pBTTT_140.pdb

0  1
C          -4.25000        -1.36000        -0.21000
C          -2.93000        -0.95000        -0.61000
C          -1.97000        -2.05000        -0.62000
C          -2.66000         0.47000        -0.96000
C          -4.33000        -2.76000         0.10000
H          -5.10000        -0.70000        -0.14000
S          -2.80000        -3.56000        -0.11000
H          -5.23000        -3.27000         0.41000
C          -0.56000        -2.13000        -0.97000
S           0.59700        -3.11700        -0.02500
C           1.92700        -2.68500        -1.04500
C           1.53100        -1.82000        -2.12600
C           0.13100        -1.51400        -2.10500
H          -0.37500        -1.01900        -2.91900
S           2.57800        -1.94600        -3.50000
C           3.58200        -3.14000        -2.67500
C           3.08700        -3.45400        -1.35400
H           4.35500        -3.69800        -3.18500
H           3.39300        -4.34300        -0.80800
H          -3.55000         1.09000        -0.83000
H          -2.35000         0.56000        -2.00000
H          -1.88000         0.89000        -0.31000

D 2 3 9 10 F

