%mem=100GB 
%nprocshared=8 
# opt=modredundant wb97xd/6-311+g(d,p) 

 pBTTT_-105.pdb

0  1
C          -4.25000        -1.36000        -0.21000
C          -2.93000        -0.95000        -0.61000
C          -1.97000        -2.05000        -0.62000
C          -2.66000         0.47000        -0.96000
C          -4.33000        -2.76000         0.10000
H          -5.10000        -0.70000        -0.14000
S          -2.80000        -3.56000        -0.11000
H          -5.23000        -3.27000         0.41000
C          -0.56000        -2.13000        -0.97000
S          -0.00400        -2.86900        -2.50300
C           1.66100        -2.56400        -2.14400
C           1.83500        -1.88000        -0.88700
C           0.59200        -1.61600        -0.22600
H           0.51100        -0.97400         0.63800
S           3.29800        -0.95400        -0.82800
C           3.73000        -1.45900        -2.46300
C           2.73000        -2.31800        -3.05500
H           4.55100        -1.01500        -3.00800
H           2.67400        -2.50500        -4.12400
H          -3.55000         1.09000        -0.83000
H          -2.35000         0.56000        -2.00000
H          -1.88000         0.89000        -0.31000

D 2 3 9 10 F

