%mem=100GB 
%nprocshared=8 
# opt=modredundant wb97xd/6-311+g(d,p) 

 pBTTT_150.pdb

0  1
C          -4.25000        -1.36000        -0.21000
C          -2.93000        -0.95000        -0.61000
C          -1.97000        -2.05000        -0.62000
C          -2.66000         0.47000        -0.96000
C          -4.33000        -2.76000         0.10000
H          -5.10000        -0.70000        -0.14000
S          -2.80000        -3.56000        -0.11000
H          -5.23000        -3.27000         0.41000
C          -0.56000        -2.13000        -0.97000
S           0.54300        -3.31000        -0.19800
C           1.90300        -2.77000        -1.12200
C           1.55700        -1.71900        -2.04500
C           0.17100        -1.36200        -1.98000
H          -0.30400        -0.71600        -2.70300
S           2.61600        -1.65700        -3.41400
C           3.55900        -3.01500        -2.79600
C           3.03500        -3.52500        -1.55000
H           4.31600        -3.51100        -3.38800
H           3.29600        -4.50500        -1.16000
H          -3.55000         1.09000        -0.83000
H          -2.35000         0.56000        -2.00000
H          -1.88000         0.89000        -0.31000

D 2 3 9 10 F

