%mem=100GB 
%nprocshared=8 
# opt=modredundant mp2/aug-cc-pvdz 

 pBTTT_-170.pdb

0  1
C           3.93500         0.86700         0.03700
C           2.52900         1.14900         0.07700
C           1.74100         0.04500        -0.00600
C           4.18800        -0.45200        -0.08000
H           4.69900         1.62800         0.09300
S           2.74300        -1.38300        -0.15300
H           5.15000        -0.93300        -0.13300
C           0.27900        -0.02800         0.00300
S          -0.53100        -1.58800         0.14800
C          -2.08800        -0.82300         0.06700
C          -1.96000         0.52800        -0.05300
C          -0.60800         0.99500        -0.09200
H          -0.31700         2.02500        -0.18800
S          -3.51700         1.29600        -0.12800
C          -4.30900        -0.25300         0.00600
C          -3.44500        -1.28500         0.10200
H          -5.38500        -0.30200         0.00500
H          -3.74700        -2.31500         0.19200
O           2.02600         2.39900         0.18600
H           2.71700         3.02800         0.30600

D 2 3 8 9 F

