%mem=100GB 
%nprocshared=8 
# opt=modredundant mp2/aug-cc-pvdz 

 pBTTT_110.pdb

0  1
C          -3.94600         0.73200         0.26400
C          -2.54300         0.96500         0.47800
C          -1.74400         0.03500        -0.09400
C          -4.17200        -0.38300        -0.46100
H          -4.72600         1.37500         0.64300
S          -2.71000        -1.17200        -0.91400
H          -5.12500        -0.78300        -0.76100
C          -0.27600        -0.04000        -0.05200
S           0.52900        -1.30700         0.86800
C           2.08400        -0.67300         0.43100
C           1.95900         0.43700        -0.35300
C           0.60300         0.80300        -0.63700
H           0.30000         1.64300        -1.23900
S           3.51600         1.07300        -0.79200
C           4.30600        -0.19600         0.10700
C           3.44300        -1.04700         0.70000
H           5.38200        -0.23200         0.14100
H           3.74700        -1.89100         1.29700
O          -2.05800         2.01100         1.17900
H          -2.75600         2.49700         1.58300

D 2 3 8 9 F

