%mem=100GB 
%nprocshared=8 
# opt=modredundant mp2/aug-cc-pvdz 

 pBTTT_60.pdb

0  1
C           4.00800         0.34000         0.38100
C           2.64400         0.76900         0.53200
C           1.74100        -0.09900         0.01900
C           4.10200        -0.85100        -0.24400
H           4.85600         0.90600         0.73600
S           2.55800        -1.48000        -0.67500
H           5.00100        -1.39600        -0.47700
C           0.27400        -0.00700         0.00900
S          -0.53600         1.33800        -0.78100
C          -2.08900         0.66300        -0.40000
C          -1.96000        -0.51700         0.27200
C          -0.60300        -0.90800         0.51000
H          -0.29800        -1.80200         1.03000
S          -3.51400        -1.19000         0.66200
C          -4.31000         0.16100        -0.10300
C          -3.45000         1.06300        -0.61900
H          -5.38500         0.20200        -0.12400
H          -3.75600         1.96200        -1.12900
O           2.28300         1.91900         1.13900
H           3.04000         2.40500         1.41900

D 2 3 8 9 F

