%mem=100GB 
%nprocshared=8 
# opt=modredundant mp2/aug-cc-pvdz 

 pBTTT_-85.pdb

0  1
C           3.97700         0.37200        -0.54100
C           2.59100         0.71300        -0.71300
C           1.74400        -0.09600        -0.03500
C           4.14200        -0.69300         0.27000
H           4.79000         0.90700        -1.01100
S           2.64200        -1.31100         0.84600
H           5.07200        -1.15300         0.55900
C           0.27400        -0.03100         0.01400
S          -0.53300         1.02900         1.16200
C          -2.08700         0.50800         0.59300
C          -1.96100        -0.41700        -0.40200
C          -0.60300        -0.73300        -0.73700
H          -0.29800        -1.43600        -1.49400
S          -3.51600        -0.93900        -0.97500
C          -4.30900         0.12100         0.16100
C          -3.44700         0.82600         0.92400
H          -5.38400         0.15700         0.19300
H          -3.75200         1.53100         1.68000
O           2.15900         1.73600        -1.47800
H           2.88400         2.21500        -1.84200

D 2 3 8 9 F

