%mem=100GB 
%nprocshared=8 
# opt=modredundant mp2/aug-cc-pvdz 

 pBTTT_85.pdb

0  1
C           3.97700         0.37200         0.54100
C           2.59100         0.71300         0.71200
C           1.74400        -0.09700         0.03600
C           4.14200        -0.69300        -0.27000
H           4.79000         0.90700         1.01100
S           2.64200        -1.31100        -0.84600
H           5.07200        -1.15300        -0.56000
C           0.27400        -0.03100        -0.01400
S          -0.53200         1.02900        -1.16200
C          -2.08700         0.50800        -0.59300
C          -1.96100        -0.41700         0.40200
C          -0.60400        -0.73200         0.73700
H          -0.29900        -1.43500         1.49500
S          -3.51600        -0.93900         0.97400
C          -4.30900         0.12200        -0.16100
C          -3.44700         0.82500        -0.92400
H          -5.38400         0.15800        -0.19300
H          -3.75200         1.53000        -1.68100
O           2.15900         1.73600         1.47800
H           2.88500         2.21500         1.84100

D 2 3 8 9 F

