%mem=100GB 
%nprocshared=8 
# opt=modredundant mp2/aug-cc-pvdz 

 pBTTT_-70.pdb

0  1
C          -3.99700         0.34500         0.45100
C          -2.62400         0.73700         0.62000
C          -1.74300        -0.09900         0.02400
C          -4.11800        -0.78700        -0.27200
H          -4.83200         0.89100         0.86400
S          -2.59000        -1.40400        -0.77300
H          -5.02800        -1.29600        -0.53900
C          -0.27400        -0.01500         0.00000
S           0.53400         1.24800        -0.91700
C           2.08800         0.61800        -0.46800
C           1.96000        -0.49000         0.31700
C           0.60300        -0.86000         0.58800
H           0.29800        -1.70000         1.19100
S           3.51500        -1.12000         0.77200
C           4.30900         0.15000        -0.12300
C           3.44900         0.99600        -0.72600
H           5.38500         0.19000        -0.14800
H           3.75400         1.84100        -1.32200
O          -2.23500         1.82600         1.31600
H          -2.98000         2.30300         1.63900

D 2 3 8 9 F

