%mem=100GB 
%nprocshared=8 
# opt=modredundant mp2/aug-cc-pvdz 

 pBTTT_-10.pdb

0  1
C          -4.02800         0.36400         0.06100
C          -2.67600         0.85200         0.08600
C          -1.73500        -0.12100         0.00400
C          -4.08300        -0.97800        -0.04200
H          -4.89500         1.00400         0.11900
S          -2.51300        -1.68600        -0.11700
H          -4.96300        -1.59700        -0.08200
C          -0.27600        -0.01100         0.01200
S           0.53700         1.54700        -0.12000
C           2.08900         0.77100        -0.06900
C           1.96300        -0.58200         0.04500
C           0.60900        -1.03800         0.09200
H           0.31900        -2.07200         0.18400
S           3.51800        -1.35400         0.10800
C           4.31200         0.19500        -0.02100
C           3.44900         1.22900        -0.10600
H           5.38800         0.24200        -0.02800
H           3.75300         2.25900        -0.19100
O          -2.36000         2.16100         0.18400
H          -3.13500         2.69500         0.22300

D 2 3 8 9 F

