%mem=100GB 
%nprocshared=8 
# opt=modredundant mp2/aug-cc-pvdz 

 pBTTT_30.pdb

0  1
C          -4.02600         0.34700        -0.18400
C          -2.67600         0.83300        -0.26000
C          -1.73600        -0.11200        -0.01000
C          -4.07900        -0.96400         0.12600
H          -4.89400         0.96300        -0.36000
S          -2.51000        -1.64100         0.34700
H          -4.95900        -1.57300         0.24400
C          -0.27600        -0.00300        -0.02300
S           0.53800         1.50700         0.37300
C           2.08900         0.74800         0.20200
C           1.96100        -0.56700        -0.13500
C           0.60600        -1.00500        -0.26800
H           0.30900        -2.00600        -0.53600
S           3.51500        -1.32000        -0.32800
C           4.31100         0.18500         0.05600
C           3.44900         1.19200         0.31100
H           5.38700         0.23000         0.07000
H           3.75500         2.19400         0.56700
O          -2.36000         2.11100        -0.55900
H          -3.13600         2.62700        -0.70000

D 2 3 8 9 F

