%mem=100GB 
%nprocshared=8 
# opt=modredundant mp2/aug-cc-pvdz 

 pBTTT_-75.pdb

0  1
C           3.99100         0.34700        -0.48600
C           2.61300         0.72100        -0.66100
C           1.74300        -0.09900        -0.02600
C           4.12600        -0.75300         0.28200
H           4.81800         0.88400        -0.92500
S           2.60700        -1.36400         0.81600
H           5.04300        -1.24300         0.56300
C           0.27400        -0.02000         0.00500
S          -0.53400         1.19500         0.98600
C          -2.08800         0.59200         0.50300
C          -1.96100        -0.47300        -0.34100
C          -0.60300        -0.83100        -0.62900
H          -0.29800        -1.63800        -1.27500
S          -3.51600        -1.07600        -0.82800
C          -4.30900         0.14300         0.13400
C          -3.44800         0.95500         0.78200
H          -5.38500         0.18200         0.16100
H          -3.75300         1.76700         1.42200
O           2.20900         1.77800        -1.39500
H           2.94800         2.25100        -1.74000

D 2 3 8 9 F

