%mem=100GB 
%nprocshared=8 
# opt=modredundant mp2/aug-cc-pvdz 

 pBTTT_-95.pdb

0  1
C           3.96400         0.66100         0.26300
C           2.56900         0.89200         0.53000
C           1.74500         0.02300        -0.09900
C           4.15600        -0.38900        -0.56300
H           4.76200         1.26000         0.67600
S           2.67300        -1.12000        -1.04200
H           5.09700        -0.77100        -0.92100
C           0.27400        -0.03100        -0.03700
S          -0.53200        -1.10300         1.10100
C          -2.08600        -0.56700         0.54600
C          -1.96000         0.36800        -0.43900
C          -0.60300         0.67700        -0.78100
H          -0.29800         1.38700        -1.53200
S          -3.51600         0.90800        -0.99500
C          -4.30800        -0.16000         0.13300
C          -3.44700        -0.87800         0.88300
H          -5.38400        -0.18900         0.17200
H          -3.75100        -1.58900         1.63400
O           2.11300         1.87900         1.32700
H           2.82700         2.34900         1.72300

D 2 3 8 9 F

