%mem=100GB 
%nprocshared=8 
# opt=modredundant mp2/aug-cc-pvdz 

 pBTTT_175.pdb

0  1
C           3.93500         0.87000        -0.01800
C           2.52900         1.15200        -0.03900
C           1.74100         0.04600         0.00200
C           4.18900        -0.45300         0.04100
H           4.69800         1.63300        -0.04600
S           2.74400        -1.38700         0.07700
H           5.15100        -0.93600         0.06800
C           0.27900        -0.02800        -0.00200
S          -0.53100        -1.59300        -0.07500
C          -2.08800        -0.82600        -0.03400
C          -1.96100         0.53000         0.02600
C          -0.60900         0.99900         0.04600
H          -0.31900         2.03200         0.09400
S          -3.51800         1.30000         0.06500
C          -4.31000        -0.25400        -0.00200
C          -3.44500        -1.28900        -0.05100
H          -5.38500        -0.30400        -0.00100
H          -3.74700        -2.32300        -0.09600
O           2.02500         2.40600        -0.09400
H           2.71800         3.04100        -0.15500

D 2 3 8 9 F

