%mem=100GB 
%nprocshared=8 
# opt=modredundant mp2/aug-cc-pvdz 

 pBTTT_125.pdb

0  1
C          -3.93600         0.79000         0.22200
C          -2.52900         1.04000         0.38200
C          -1.74200         0.03900        -0.08100
C          -4.17900        -0.40500        -0.35400
H          -4.70600         1.48100         0.53200
S          -2.72800        -1.25100        -0.73300
H          -5.13900        -0.83500        -0.58500
C          -0.27800        -0.04100        -0.05200
S           0.52700        -1.42400         0.68600
C           2.08300        -0.73500         0.33900
C           1.95800         0.47500        -0.27800
C           0.60200         0.87700        -0.51000
H           0.30200         1.79300        -0.98900
S           3.51400         1.16500        -0.62400
C           4.30500        -0.22000         0.08500
C           3.44200        -1.14500         0.55200
H           5.38100        -0.26100         0.11200
H           3.74400        -2.06600         1.02200
O          -2.02900         2.16600         0.93500
H          -2.71300         2.67100         1.34100

D 2 3 8 9 F

