%mem=100GB 
%nprocshared=8 
# opt=modredundant mp2/aug-cc-pvdz 

 pBTTT_-15.pdb

0  1
C          -4.02800         0.36000         0.09100
C          -2.67700         0.84900         0.12900
C          -1.73500        -0.12000         0.00600
C          -4.08200        -0.97600        -0.06300
H          -4.89600         0.99700         0.17900
S          -2.51200        -1.67900        -0.17500
H          -4.96100        -1.59500        -0.12300
C          -0.27600        -0.01000         0.01700
S           0.53700         1.54100        -0.18200
C           2.08900         0.76700        -0.10200
C           1.96300        -0.57900         0.06700
C           0.60800        -1.03200         0.13700
H           0.31700        -2.06100         0.27400
S           3.51800        -1.34900         0.16300
C           4.31200         0.19300        -0.03100
C           3.44900         1.22300        -0.15800
H           5.38700         0.24000        -0.04000
H           3.75300         2.24900        -0.28600
O          -2.36100         2.15300         0.27600
H          -3.13700         2.68500         0.33800

D 2 3 8 9 F

