%mem=100GB 
%nprocshared=8 
# opt=modredundant mp2/aug-cc-pvdz 

 pBTTT_150.pdb

0  1
C          -3.93300         0.84500         0.12000
C          -2.52700         1.11700         0.21800
C          -1.74100         0.04200        -0.03700
C          -4.18300        -0.43800        -0.20900
H          -4.70000         1.58700         0.29200
S          -2.73500        -1.34400        -0.42600
H          -5.14400        -0.90400        -0.34500
C          -0.27900        -0.03300        -0.01700
S           0.53000        -1.54100         0.40300
C           2.08500        -0.79900         0.19300
C           1.95700         0.51400        -0.15400
C           0.60300         0.96100        -0.28000
H           0.30500         1.95800        -0.55400
S           3.51300         1.26000        -0.35800
C           4.30600        -0.24300         0.03600
C           3.44400        -1.24500         0.30400
H           5.38200        -0.29000         0.04400
H           3.74800        -2.24500         0.56700
O          -2.02400         2.33400         0.52700
H          -2.70200         2.90400         0.84900

D 2 3 8 9 F

