%mem=100GB 
%nprocshared=8 
# opt=modredundant mp2/aug-cc-pvdz 

 pBTTT_40.pdb

0  1
C          -4.02200         0.34000        -0.24800
C          -2.67100         0.81700        -0.34900
C          -1.73800        -0.10600        -0.01200
C          -4.08200        -0.94200         0.16800
H          -4.88800         0.94000        -0.48400
S          -2.51700        -1.59900         0.46000
H          -4.96400        -1.53800         0.32400
C          -0.27500        -0.00100        -0.02100
S           0.53800         1.46700         0.50800
C           2.09000         0.72700         0.26800
C           1.96000        -0.55400        -0.18100
C           0.60400        -0.97900        -0.35000
H           0.30300        -1.95200        -0.70300
S           3.51400        -1.28800        -0.44000
C           4.31000         0.17800         0.07000
C           3.45000         1.16000         0.41200
H           5.38600         0.22000         0.08700
H           3.75700         2.13600         0.75200
O          -2.34800         2.06400        -0.75300
H          -3.12100         2.56700        -0.94700

D 2 3 8 9 F

