%mem=100GB 
%nprocshared=8 
# opt=modredundant mp2/aug-cc-pvdz 

 pBTTT_-60.pdb

0  1
C          -4.00800         0.34100         0.38100
C          -2.64400         0.76900         0.53200
C          -1.74100        -0.10000         0.01900
C          -4.10200        -0.85100        -0.24300
H          -4.85600         0.90700         0.73600
S          -2.55900        -1.48000        -0.67500
H          -5.00100        -1.39600        -0.47600
C          -0.27400        -0.00700         0.00900
S           0.53600         1.33800        -0.78100
C           2.08900         0.66300        -0.40000
C           1.96000        -0.51700         0.27200
C           0.60300        -0.90900         0.50900
H           0.29800        -1.80300         1.02800
S           3.51400        -1.19000         0.66200
C           4.31000         0.16100        -0.10300
C           3.45000         1.06400        -0.61800
H           5.38500         0.20100        -0.12400
H           3.75600         1.96300        -1.12700
O          -2.28200         1.91900         1.13800
H          -3.03900         2.40600         1.41800

D 2 3 8 9 F

