%mem=100GB 
%nprocshared=8 
# opt=modredundant mp2/aug-cc-pvdz 

 pBTTT_-130.pdb

0  1
C           3.93400         0.80500         0.20500
C           2.52700         1.05900         0.35000
C           1.74200         0.04000        -0.07500
C           4.18000        -0.41200        -0.32200
H           4.70300         1.50900         0.48800
S           2.73100        -1.27400        -0.67300
H           5.14100        -0.85000        -0.53200
C           0.27800        -0.04000        -0.04800
S          -0.52700        -1.45400         0.62800
C          -2.08300        -0.75200         0.31000
C          -1.95700         0.48400        -0.25300
C          -0.60200         0.89700        -0.46600
H          -0.30200         1.83400        -0.90400
S          -3.51400         1.18900        -0.57000
C          -4.30500        -0.22600         0.07600
C          -3.44200        -1.17100         0.50300
H          -5.38100        -0.26800         0.10100
H          -3.74500        -2.11200         0.93200
O           2.02500         2.20900         0.85200
H           2.70400         2.72200         1.25700

D 2 3 8 9 F

