%mem=100GB 
%nprocshared=8 
# opt=modredundant mp2/aug-cc-pvdz 

 pBTTT_55.pdb

0  1
C           4.01200         0.33900         0.34600
C           2.65300         0.78400         0.48600
C           1.74000        -0.10000         0.01700
C           4.09500        -0.87900        -0.22700
H           4.86700         0.91400         0.67200
S           2.54400        -1.51500        -0.62300
H           4.98800        -1.44000        -0.44100
C           0.27400        -0.00400         0.01300
S          -0.53700         1.37700        -0.71300
C          -2.08900         0.68200        -0.36700
C          -1.96000        -0.52800         0.24900
C          -0.60200        -0.92900         0.47000
H          -0.29800        -1.84500         0.94900
S          -3.51300        -1.22000         0.60600
C          -4.31000         0.16600        -0.09400
C          -3.45000         1.09200        -0.56600
H          -5.38600         0.20600        -0.11400
H          -3.75700         2.01400        -1.03300
O           2.30400         1.96200         1.04400
H           3.06600         2.45100         1.30400

D 2 3 8 9 F

