%mem=100GB 
%nprocshared=8 
# opt=modredundant mp2/aug-cc-pvdz 

 pBTTT_-30.pdb

0  1
C          -4.02500         0.34700         0.18500
C          -2.67600         0.83300         0.26100
C          -1.73600        -0.11200         0.01000
C          -4.07900        -0.96300        -0.12600
H          -4.89400         0.96400         0.36200
S          -2.51100        -1.64000        -0.34800
H          -4.95900        -1.57300        -0.24400
C          -0.27600        -0.00400         0.02200
S           0.53800         1.50700        -0.37500
C           2.08900         0.74700        -0.20300
C           1.96100        -0.56700         0.13500
C           0.60600        -1.00600         0.26600
H           0.30900        -2.00600         0.53500
S           3.51500        -1.31900         0.32900
C           4.31100         0.18500        -0.05600
C           3.44900         1.19200        -0.31100
H           5.38700         0.23000        -0.07000
H           3.75500         2.19400        -0.56600
O          -2.35900         2.11100         0.56000
H          -3.13500         2.62800         0.70100

D 2 3 8 9 F

