%mem=100GB 
%nprocshared=8 
# opt=modredundant mp2/aug-cc-pvdz 

 pBTTT_-155.pdb

0  1
C           3.93400         0.85200         0.09800
C           2.52800         1.12800         0.18500
C           1.74100         0.04200        -0.02700
C           4.18400        -0.44300        -0.18100
H           4.70000         1.60000         0.24100
S           2.73700        -1.35700        -0.36200
H           5.14500        -0.91400        -0.29900
C           0.27900        -0.03100        -0.00900
S          -0.53100        -1.55700         0.34400
C          -2.08600        -0.80700         0.16300
C          -1.95800         0.51900        -0.12900
C          -0.60400         0.97300        -0.23300
H          -0.30800         1.98000        -0.46500
S          -3.51300         1.27200        -0.30400
C          -4.30700        -0.24600         0.02600
C          -3.44400        -1.25800         0.25400
H          -5.38300        -0.29400         0.03100
H          -3.74800        -2.26900         0.47500
O           2.02500         2.35500         0.44500
H           2.70700         2.94300         0.72600

D 2 3 8 9 F

