%mem=100GB 
%nprocshared=8 
# opt=modredundant mp2/aug-cc-pvdz 

 pBTTT_160.pdb

0  1
C          -3.93400         0.85800         0.07600
C          -2.52800         1.13600         0.15000
C          -1.74100         0.04300        -0.01800
C          -4.18600        -0.44700        -0.15100
H          -4.70000         1.61100         0.19000
S          -2.73800        -1.36800        -0.29500
H          -5.14600        -0.92300        -0.24900
C          -0.27900        -0.03000        -0.00200
S           0.53100        -1.56900         0.28300
C           2.08700        -0.81300         0.13200
C           1.95800         0.52300        -0.10400
C           0.60500         0.98200        -0.18500
H           0.31100         1.99900        -0.37300
S           3.51500         1.28300        -0.24900
C           4.30800        -0.24900         0.01700
C           3.44500        -1.26900         0.20400
H           5.38400        -0.29800         0.01900
H           3.74800        -2.28800         0.38200
O          -2.02600         2.37300         0.36200
H          -2.71100         2.97700         0.59400

D 2 3 8 9 F

