%mem=100GB 
%nprocshared=8 
# opt=modredundant mp2/aug-cc-pvdz 

 pBTTT_140.pdb

0  1
C          -3.93300         0.82900         0.16400
C          -2.52600         1.09300         0.28400
C          -1.74100         0.04100        -0.05700
C          -4.18200        -0.42600        -0.26300
H          -4.70000         1.55400         0.39400
S          -2.73400        -1.31300        -0.55000
H          -5.14300        -0.88000        -0.43500
C          -0.27900        -0.03700        -0.03500
S           0.52800        -1.50400         0.51500
C           2.08400        -0.77800         0.25100
C           1.95700         0.50100        -0.20400
C           0.60200         0.93300        -0.37400
H           0.30300         1.90300        -0.73100
S           3.51300         1.22900        -0.46300
C           4.30500        -0.23600         0.05700
C           3.44200        -1.21300         0.40400
H           5.38100        -0.28100         0.07400
H           3.74600        -2.18800         0.75000
O          -2.02200         2.28000         0.68800
H          -2.69600         2.81700         1.06800

D 2 3 8 9 F

