%mem=100GB 
%nprocshared=8 
# opt=modredundant mp2/aug-cc-pvdz 

 pBTTT_100.pdb

0  1
C          -3.95700         0.68200         0.27500
C          -2.56000         0.90800         0.52900
C          -1.74500         0.02900        -0.09800
C          -4.16200        -0.37600        -0.53500
H          -4.74800         1.29100         0.68900
S          -2.68800        -1.12100        -1.02000
H          -5.10800        -0.75800        -0.88100
C          -0.27500        -0.03400        -0.04300
S           0.53100        -1.19600         1.00500
C           2.08600        -0.61400         0.49800
C           1.96000         0.40100        -0.40500
C           0.60300         0.73600        -0.72200
H           0.29800         1.50500        -1.41200
S           3.51600         0.98500        -0.91300
C           4.30800        -0.17500         0.12200
C           3.44600        -0.95400         0.80700
H           5.38300        -0.20600         0.15900
H           3.75000        -1.72600         1.49500
O          -2.09100         1.90200         1.31300
H          -2.80000         2.37200         1.71800

D 2 3 8 9 F

