%mem=100GB 
%nprocshared=8 
# opt=modredundant mp2/aug-cc-pvdz 

 pBTTT_105.pdb

0  1
C          -3.95100         0.70800         0.27200
C          -2.55100         0.93600         0.50600
C          -1.74400         0.03200        -0.09600
C          -4.16800        -0.37700        -0.49900
H          -4.73600         1.33300         0.67100
S          -2.70000        -1.14400        -0.97000
H          -5.11700        -0.76800        -0.82200
C          -0.27500        -0.03800        -0.04800
S           0.53000        -1.25700         0.93300
C           2.08500        -0.64600         0.46300
C           1.96000         0.42100        -0.37800
C           0.60300         0.77200        -0.67800
H           0.29900         1.58100        -1.32300
S           3.51600         1.03300        -0.85000
C           4.30700        -0.18600         0.11400
C           3.44500        -1.00400         0.75100
H           5.38300        -0.22000         0.15000
H           3.74800        -1.81600         1.39200
O          -2.07300         1.95400         1.25200
H          -2.77700         2.43200         1.65800

D 2 3 8 9 F

