%mem=100GB 
%nprocshared=8 
# opt=modredundant mp2/aug-cc-pvdz 

 pBTTT_-165.pdb

0  1
C           3.93500         0.86300         0.05600
C           2.52900         1.14300         0.11400
C           1.74100         0.04400        -0.01100
C           4.18700        -0.45000        -0.11700
H           4.69900         1.62100         0.14100
S           2.74000        -1.37700        -0.22500
H           5.14800        -0.92900        -0.19300
C           0.27900        -0.02900         0.00200
S          -0.53100        -1.58000         0.21700
C          -2.08700        -0.81900         0.10000
C          -1.95900         0.52600        -0.07800
C          -0.60600         0.99000        -0.13800
H          -0.31400         2.01400        -0.28100
S          -3.51600         1.29100        -0.19000
C          -4.30900        -0.25100         0.01100
C          -3.44500        -1.27800         0.15300
H          -5.38400        -0.30000         0.01100
H          -3.74800        -2.30400         0.28700
O           2.02600         2.38800         0.27500
H           2.71500         3.00600         0.45300

D 2 3 8 9 F

