%mem=100GB 
%nprocshared=8 
# opt=modredundant mp2/aug-cc-pvdz 

 pBTTT_-40.pdb

0  1
C          -4.02200         0.34000         0.24900
C          -2.67100         0.81700         0.35000
C          -1.73800        -0.10600         0.01200
C          -4.08200        -0.94100        -0.16700
H          -4.88800         0.94100         0.48500
S          -2.51700        -1.59900        -0.46000
H          -4.96500        -1.53700        -0.32400
C          -0.27500        -0.00100         0.02000
S           0.53800         1.46700        -0.50900
C           2.09000         0.72700        -0.26800
C           1.96000        -0.55500         0.18100
C           0.60400        -0.97900         0.34800
H           0.30300        -1.95200         0.70200
S           3.51400        -1.28800         0.44100
C           4.31000         0.17800        -0.07000
C           3.45000         1.16000        -0.41200
H           5.38600         0.22000        -0.08700
H           3.75700         2.13600        -0.75100
O          -2.34700         2.06400         0.75400
H          -3.12000         2.56800         0.94700

D 2 3 8 9 F

