%mem=100GB 
%nprocshared=8 
# opt=modredundant mp2/aug-cc-pvdz 

 pBTTT_180.pdb

0  1
C           3.93500         0.87100         0.00000
C           2.52800         1.15300         0.00000
C           1.74100         0.04600         0.00000
C           4.19000        -0.45300        -0.00000
H           4.69800         1.63400        -0.00000
S           2.74500        -1.38800         0.00000
H           5.15100        -0.93700        -0.00000
C           0.27900        -0.02800         0.00000
S          -0.53100        -1.59400        -0.00000
C          -2.08800        -0.82700        -0.00000
C          -1.96100         0.53000         0.00000
C          -0.60900         1.00000         0.00000
H          -0.31900         2.03400         0.00000
S          -3.51900         1.30100        -0.00000
C          -4.31000        -0.25400        -0.00000
C          -3.44500        -1.29000         0.00000
H          -5.38500        -0.30400         0.00000
H          -3.74700        -2.32500        -0.00000
O           2.02500         2.40800        -0.00000
H           2.71800         3.04600        -0.00000

D 2 3 8 9 F

