%mem=100GB 
%nprocshared=8 
# opt=modredundant mp2/aug-cc-pvdz 

 pBTTT_-5.pdb

0  1
C          -4.02800         0.36600         0.03000
C          -2.67600         0.85400         0.04300
C          -1.73500        -0.12200         0.00200
C          -4.08400        -0.97800        -0.02100
H          -4.89500         1.00900         0.05900
S          -2.51400        -1.69000        -0.05800
H          -4.96400        -1.59800        -0.04100
C          -0.27600        -0.01200         0.00600
S           0.53800         1.55000        -0.06000
C           2.09000         0.77300        -0.03400
C           1.96300        -0.58300         0.02200
C           0.60900        -1.04100         0.04600
H           0.32000        -2.07800         0.09200
S           3.51900        -1.35800         0.05400
C           4.31200         0.19600        -0.01100
C           3.44900         1.23200        -0.05300
H           5.38800         0.24400        -0.01400
H           3.75300         2.26500        -0.09500
O          -2.36000         2.16500         0.09200
H          -3.13400         2.70100         0.11100

D 2 3 8 9 F

