%mem=100GB 
%nprocshared=8 
# opt=modredundant mp2/aug-cc-pvdz 

 pBTTT_80.pdb

0  1
C           3.98400         0.35200         0.51900
C           2.60200         0.70700         0.69700
C           1.74400        -0.09800         0.03000
C           4.13400        -0.71900        -0.28600
H           4.80400         0.88200         0.98100
S           2.62500        -1.32600        -0.85000
H           5.05800        -1.19000        -0.57800
C           0.27400        -0.02600        -0.01000
S          -0.53300         1.13000        -1.06100
C          -2.08700         0.55900        -0.54200
C          -1.96100        -0.45200         0.36600
C          -0.60400        -0.79300         0.67400
H          -0.29900        -1.56000         1.36800
S          -3.51600        -1.02300         0.88900
C          -4.30900         0.13500        -0.14600
C          -3.44800         0.90500        -0.84300
H          -5.38500         0.17300        -0.17500
H          -3.75200         1.67500        -1.53300
O           2.18400         1.73700         1.46200
H           2.91600         2.20700         1.82300

D 2 3 8 9 F

