%mem=100GB 
%nprocshared=8 
# opt=modredundant mp2/aug-cc-pvdz 

 pBTTT_65.pdb

0  1
C           4.00300         0.34200         0.41600
C           2.63500         0.75400         0.57600
C           1.74200        -0.09900         0.02100
C           4.10900        -0.82000        -0.26000
H           4.84500         0.89900         0.80000
S           2.57300        -1.44300        -0.72500
H           5.01400        -1.34800        -0.51000
C           0.27400        -0.01100         0.00500
S          -0.53500         1.29600        -0.84800
C          -2.08800         0.64200        -0.43400
C          -1.96000        -0.50500         0.29500
C          -0.60300        -0.88500         0.55000
H          -0.29800        -1.75300         1.11100
S          -3.51500        -1.15700         0.71600
C          -4.30900         0.15600        -0.11300
C          -3.44900         1.03200        -0.67200
H          -5.38500         0.19600        -0.13600
H          -3.75500         1.90500        -1.22500
O           2.26000         1.87400         1.22900
H           3.01100         2.35500         1.53200

D 2 3 8 9 F

