%mem=100GB 
%nprocshared=8 
# opt=modredundant mp2/aug-cc-pvdz 

 pBTTT_135.pdb

0  1
C          -3.93300         0.81800         0.18500
C          -2.52600         1.07700         0.31700
C          -1.74200         0.04100        -0.06700
C          -4.18100        -0.41900        -0.29100
H          -4.70100         1.53300         0.44200
S          -2.73300        -1.29400        -0.61100
H          -5.14200        -0.86600        -0.48200
C          -0.27800        -0.03900        -0.04200
S           0.52700        -1.48000         0.57100
C           2.08300        -0.76600         0.28000
C           1.95700         0.49300        -0.22900
C           0.60200         0.91600        -0.42100
H           0.30200         1.87100        -0.81800
S           3.51300         1.21000        -0.51600
C           4.30500        -0.23100         0.06700
C           3.44200        -1.19300         0.45300
H           5.38100        -0.27500         0.08800
H           3.74500        -2.15200         0.84100
O          -2.02200         2.24700         0.76900
H          -2.69800         2.77000         1.16600

D 2 3 8 9 F

