%mem=100GB 
%nprocshared=8 
# opt=modredundant mp2/aug-cc-pvdz 

 pBTTT_75.pdb

0  1
C           3.99100         0.34700         0.48600
C           2.61300         0.72100         0.66100
C           1.74300        -0.09900         0.02700
C           4.12600        -0.75300        -0.28200
H           4.81900         0.88400         0.92500
S           2.60700        -1.36300        -0.81600
H           5.04300        -1.24300        -0.56400
C           0.27400        -0.02000        -0.00400
S          -0.53400         1.19500        -0.98600
C          -2.08800         0.59100        -0.50400
C          -1.96100        -0.47300         0.34100
C          -0.60300        -0.83000         0.63000
H          -0.29900        -1.63700         1.27600
S          -3.51600        -1.07600         0.82800
C          -4.30900         0.14300        -0.13400
C          -3.44800         0.95500        -0.78200
H          -5.38500         0.18200        -0.16100
H          -3.75300         1.76600        -1.42300
O           2.21000         1.77800         1.39600
H           2.94800         2.25100         1.74000

D 2 3 8 9 F

