%mem=100GB 
%nprocshared=8 
# opt=modredundant mp2/aug-cc-pvdz 

 pBTTT_50.pdb

0  1
C          -4.01600         0.33800        -0.31300
C          -2.66000         0.79600        -0.44000
C          -1.73900        -0.10200        -0.01500
C          -4.08900        -0.90400         0.20800
H          -4.87500         0.92200        -0.60800
S          -2.53300        -1.54600         0.56900
H          -4.97800        -1.47900         0.40300
C          -0.27500        -0.00200        -0.01600
S           0.53700         1.41100         0.64400
C           2.08900         0.69900         0.33300
C           1.96000        -0.53800        -0.22700
C           0.60300        -0.94700        -0.43000
H           0.29900        -1.88400        -0.86700
S           3.51300        -1.24600        -0.55100
C           4.31000         0.17000         0.08500
C           3.45000         1.11700         0.51400
H           5.38600         0.21100         0.10400
H           3.75700         2.05900         0.93800
O          -2.32200         2.00000        -0.94800
H          -3.08900         2.49300        -1.18700

D 2 3 8 9 F

