%mem=100GB 
%nprocshared=8 
# opt=modredundant mp2/aug-cc-pvdz 

 pBTTT_20.pdb

0  1
C          -4.02700         0.35600        -0.12200
C          -2.67700         0.84500        -0.17200
C          -1.73600        -0.11700        -0.00700
C          -4.08100        -0.97400         0.08400
H          -4.89600         0.98700        -0.23900
S          -2.51100        -1.66900         0.23300
H          -4.96000        -1.59000         0.16300
C          -0.27600        -0.00800        -0.02000
S           0.53700         1.53300         0.24400
C           2.08900         0.76200         0.13600
C           1.96200        -0.57600        -0.09000
C           0.60800        -1.02500        -0.18100
H           0.31500        -2.04600        -0.36300
S           3.51700        -1.34100        -0.21700
C           4.31100         0.19100         0.04000
C           3.44900         1.21500         0.20900
H           5.38700         0.23700         0.05200
H           3.75400         2.23500         0.38000
O          -2.36200         2.14300        -0.36900
H          -3.13800         2.67100        -0.45500

D 2 3 8 9 F

