%mem=10GB 
%nprocshared=8 
# opt=modredundant b3lyp/6-311+g(d,p) 

 pBTTT_165.pdb

0  1
C          -4.25000        -1.36000        -0.21000
C          -2.93000        -0.95000        -0.61000
C          -1.97000        -2.05000        -0.62000
C          -4.33000        -2.76000         0.10000
H          -5.10000        -0.70000        -0.14000
S          -2.80000        -3.56000        -0.11000
H          -5.23000        -3.27000         0.41000
C          -0.56000        -2.13000        -0.97000
S           0.45200        -3.53400        -0.51200
C           1.86200        -2.86800        -1.26300
C           1.60100        -1.60000        -1.89400
C           0.23800        -1.18200        -1.75000
H          -0.18000        -0.34700        -2.29000
S           2.69200        -1.26500        -3.19700
C           3.53800        -2.79200        -2.93400
C           2.95600        -3.56200        -1.85900
H           4.27600        -3.17100        -3.62600
H           3.14900        -4.62400        -1.72600
O          -2.40000         0.49000        -0.72000
H          -2.92000         1.52000        -0.76000

D 2 3 8 9 F

