%mem=10GB 
%nprocshared=8 
# opt=modredundant b3lyp/6-311+g(d,p) 

 pBTTT_-160.pdb

0  1
C          -4.25000        -1.36000        -0.21000
C          -2.93000        -0.95000        -0.61000
C          -1.97000        -2.05000        -0.62000
C          -4.33000        -2.76000         0.10000
H          -5.10000        -0.70000        -0.14000
S          -2.80000        -3.56000        -0.11000
H          -5.23000        -3.27000         0.41000
C          -0.56000        -2.13000        -0.97000
S           0.22700        -3.68300        -1.38500
C           1.76200        -2.93100        -1.65100
C           1.71300        -1.50300        -1.46300
C           0.40800        -1.03900        -1.09700
H           0.14100         0.00600        -1.07400
S           2.93100        -0.66800        -2.36900
C           3.55200        -2.19000        -3.01200
C           2.79900        -3.33100        -2.54400
H           4.28500        -2.22700        -3.80600
H           2.84400        -4.30300        -3.02800
O          -2.40000         0.49000        -0.72000
H          -2.92000         1.52000        -0.76000

D 2 3 8 9 F

