%mem=100GB 
%nprocshared=8 
# opt=modredundant hf/aug-cc-pvdz 

 pg2T_TT_135.pdb

0  1
C          -4.25000        -1.36000        -0.21000
C          -2.93000        -0.95000        -0.61000
C          -1.97000        -2.05000        -0.62000
C          -4.33000        -2.76000         0.10000
S          -2.80000        -3.56000        -0.11000
H          -5.23000        -3.27000         0.41000
C          -0.56000        -2.13000        -0.97000
S           0.62100        -3.00900         0.04800
C           1.93800        -2.63800        -1.01200
C           1.51900        -1.87500        -2.16000
C           0.11400        -1.59800        -2.15600
H          -0.40600        -1.18400        -3.00700
S           2.56400        -2.09500        -3.52500
C           3.59600        -3.19500        -2.60700
C           3.11300        -3.40600        -1.26200
H           4.37900        -3.77700        -3.07200
H           3.43900        -4.23800        -0.64400
H          -2.89000         0.24000        -0.97000
O          -5.60000        -0.36000        -0.40000
H          -5.76000         0.85000        -0.75000

D 2 3 7 8 F

