%mem=100GB 
%nprocshared=8 
# opt=modredundant hf/aug-cc-pvdz 

 pg2T_TT_-120.pdb

0  1
C          -4.25000        -1.36000        -0.21000
C          -2.93000        -0.95000        -0.61000
C          -1.97000        -2.05000        -0.62000
C          -4.33000        -2.76000         0.10000
S          -2.80000        -3.56000        -0.11000
H          -5.23000        -3.27000         0.41000
C          -0.56000        -2.13000        -0.97000
S           0.03300        -3.19600        -2.28100
C           1.67700        -2.71000        -2.04600
C           1.81400        -1.72300        -1.00600
C           0.56100        -1.37700        -0.40400
H           0.44500        -0.54500         0.27300
S           3.21500        -0.72500        -1.21300
C           3.66900        -1.59800        -2.67900
C           2.72200        -2.63600        -3.01400
H           4.45700        -1.25600        -3.33500
H           2.67200        -3.08900        -4.00000
H          -2.89000         0.24000        -0.97000
O          -5.60000        -0.36000        -0.40000
H          -5.76000         0.85000        -0.75000

D 2 3 7 8 F

