%mem=100GB 
%nprocshared=8 
# opt=modredundant hf/aug-cc-pvdz 

 pg2T_TT_90.pdb

0  1
C          -4.25000        -1.36000        -0.21000
C          -2.93000        -0.95000        -0.61000
C          -1.97000        -2.05000        -0.62000
C          -4.33000        -2.76000         0.10000
S          -2.80000        -3.56000        -0.11000
H          -5.23000        -3.27000         0.41000
C          -0.56000        -2.13000        -0.97000
S           0.73300        -1.86800         0.24000
C           1.98900        -2.13300        -0.92200
C           1.47000        -2.44800        -2.22800
C           0.03800        -2.46700        -2.26400
H          -0.52400        -2.84000        -3.10600
S           2.57700        -3.38300        -3.17800
C           3.76800        -3.37000        -1.87500
C           3.29300        -2.66700        -0.70600
H           4.65800        -3.98200        -1.89900
H           3.75000        -2.78100         0.27400
H          -2.89000         0.24000        -0.97000
O          -5.60000        -0.36000        -0.40000
H          -5.76000         0.85000        -0.75000

D 2 3 7 8 F

