%mem=100GB 
%nprocshared=8 
# opt=modredundant hf/aug-cc-pvdz 

 pg2T_TT_65.pdb

0  1
C          -4.25000        -1.36000        -0.21000
C          -2.93000        -0.95000        -0.61000
C          -1.97000        -2.05000        -0.62000
C          -4.33000        -2.76000         0.10000
S          -2.80000        -3.56000        -0.11000
H          -5.23000        -3.27000         0.41000
C          -0.56000        -2.13000        -0.97000
S           0.70000        -1.27100        -0.03200
C           1.97400        -1.86600        -1.04000
C           1.49000        -2.73900        -2.07900
C           0.06800        -2.90900        -2.03900
H          -0.45200        -3.64800        -2.62900
S           2.68900        -3.87000        -2.61300
C           3.87400        -3.20800        -1.48400
C           3.32900        -2.13500        -0.68300
H           4.82500        -3.68600        -1.29600
H           3.79700        -1.79200         0.23500
H          -2.89000         0.24000        -0.97000
O          -5.60000        -0.36000        -0.40000
H          -5.76000         0.85000        -0.75000

D 2 3 7 8 F

