%mem=80GB
%nprocshared=32
#p opt Pop=CHelpG b3lyp/6-311g

 NDIgT2_2m_b3lyp_alk_Sc.pdb

0  1
C          10.58000         0.13000         0.19000
C          10.13000         1.31000         0.78000
C           8.73000         1.48000         0.76000
C           8.07000         0.42000         0.17000
S           9.21000        -0.80000        -0.37000
O          11.03000         2.18000         1.31000
H           8.22000         2.34000         1.16000
C          11.94000        -0.30000         0.02000
C          12.39000        -1.49000        -0.54000
C          13.80000        -1.62000        -0.57000
C          14.43000        -0.53000        -0.03000
S          13.32000         0.67000         0.52000
O          11.48000        -2.39000        -1.00000
H          14.33000        -2.48000        -0.97000
C          10.56000         3.44000         1.78000
H           9.89000         3.31000         2.64000
H          10.04000         3.98000         0.98000
C          11.97000        -3.61000        -1.55000
H          12.54000        -4.18000        -0.80000
H          12.59000        -3.43000        -2.43000
H          15.49000        -0.37000         0.07000
C           6.64000         0.16000         0.04000
C           6.24000        -1.19000         0.24000
H           6.99000        -1.95000         0.42000
C           4.93000        -1.59000         0.27000
C           4.65000        -3.03000         0.53000
O           5.53000        -3.86000         0.62000
N           3.30000        -3.36000         0.68000
C           2.22000        -2.47000         0.57000
O           1.11000        -2.88000         0.83000
C           2.51000        -1.06000         0.15000
C           1.49000        -0.12000        -0.09000
C           1.88000         1.22000        -0.30000
H           1.12000         1.98000        -0.48000
C           3.19000         1.63000        -0.33000
C           3.47000         3.06000        -0.60000
O           2.59000         3.89000        -0.71000
N           4.81000         3.39000        -0.76000
C           5.90000         2.50000        -0.63000
O           7.01000         2.92000        -0.89000
C           5.61000         1.10000        -0.21000
C           4.25000         0.70000        -0.15000
C           3.87000        -0.66000         0.09000
H          11.44000         4.00000         2.08000
H          11.08000        -4.18000        -1.84000
C          -3.82000         0.22000         0.11000
C          -4.28000         1.33000         0.82000
C          -5.68000         1.47000         0.85000
C          -6.34000         0.47000         0.17000
S          -5.19000        -0.67000        -0.51000
O          -3.37000         2.16000         1.41000
H          -6.19000         2.28000         1.34000
C          -2.46000        -0.16000        -0.13000
C          -2.00000        -1.28000        -0.83000
C          -0.60000        -1.41000        -0.86000
C           0.05000        -0.40000        -0.20000
S          -1.09000         0.74000         0.48000
O          -2.91000        -2.12000        -1.40000
H          -0.08000        -2.22000        -1.35000
C          -3.85000         3.36000         2.00000
H          -4.49000         3.15000         2.87000
H          -4.40000         3.97000         1.28000
C          -2.43000        -3.32000        -1.99000
H          -1.88000        -3.92000        -1.26000
H          -1.79000        -3.11000        -2.85000
H          -2.97000         3.90000         2.34000
H          -3.31000        -3.86000        -2.32000
H          -7.30000         0.26000         0.07000
C           5.13000         4.86000        -0.58000
H           4.51000         5.19000         0.28000
H           6.09000         4.99000        -0.04000
C           4.98000         5.94000        -1.73000
H           4.49000         5.47000        -2.61000
C           4.04000         7.11000        -1.24000
H           3.16000         6.66000        -0.72000
H           4.58000         7.72000        -0.49000
C           3.38000         8.00000        -2.35000
H           2.69000         7.37000        -2.94000
H           4.10000         8.42000        -3.06000
C           2.59000         9.18000        -1.71000
H           1.88000         8.77000        -0.96000
H           3.31000         9.84000        -1.17000
C           1.79000        10.03000        -2.72000
H           1.06000         9.35000        -3.22000
H           2.46000        10.46000        -3.50000
C           1.02000        11.17000        -2.02000
H           0.43000        10.74000        -1.18000
H           1.75000        11.90000        -1.60000
C           0.02000        11.90000        -2.95000
H          -0.71000        11.15000        -3.33000
H           0.56000        12.35000        -3.82000
C          -0.75000        13.01000        -2.20000
H          -1.22000        12.57000        -1.29000
H          -0.04000        13.80000        -1.88000
C          -1.87000        13.62000        -3.05000
H          -2.59000        12.82000        -3.33000
H          -1.45000        14.06000        -3.98000
C          -2.63000        14.72000        -2.28000
H          -3.03000        14.30000        -1.33000
H          -1.93000        15.55000        -2.03000
C          -3.80000        15.28000        -3.08000
H          -4.54000        14.48000        -3.30000
H          -3.45000        15.73000        -4.03000
H          -4.31000        16.07000        -2.48000
C           6.44000         6.44000        -2.04000
H           6.96000         5.55000        -2.46000
H           6.98000         6.72000        -1.11000
C           6.68000         7.60000        -3.03000
H           6.01000         7.46000        -3.91000
H           7.73000         7.51000        -3.41000
C           6.62000         9.03000        -2.43000
H           5.69000         9.21000        -1.87000
H           7.44000         9.18000        -1.70000
C           6.70000        10.07000        -3.56000
H           5.88000         9.85000        -4.27000
H           7.67000         9.97000        -4.10000
C           6.54000        11.53000        -3.09000
H           5.59000        11.61000        -2.51000
H           7.39000        11.81000        -2.43000
C           6.45000        12.47000        -4.30000
H           5.60000        12.15000        -4.94000
H           7.39000        12.40000        -4.90000
C           6.22000        13.93000        -3.89000
H           5.30000        14.00000        -3.27000
H           7.08000        14.29000        -3.29000
C           6.05000        14.82000        -5.12000
H           5.18000        14.49000        -5.72000
H           6.96000        14.79000        -5.76000
H           5.88000        15.87000        -4.80000
C           2.99000        -4.75000         1.30000
H           3.61000        -4.75000         2.23000
H           1.97000        -4.75000         1.73000
C           3.13000        -6.29000         0.79000
H           3.03000        -6.81000         1.77000
C           1.93000        -6.99000        -0.00000
H           1.00000        -6.40000         0.17000
H           2.14000        -6.95000        -1.09000
C           1.55000        -8.47000         0.48000
H           1.14000        -8.41000         1.52000
H           2.43000        -9.13000         0.56000
C           0.51000        -9.23000        -0.42000
H          -0.41000        -8.61000        -0.50000
H           0.95000        -9.33000        -1.44000
C           0.08000       -10.66000         0.07000
H          -0.40000       -10.57000         1.07000
H           0.97000       -11.32000         0.17000
C          -0.93000       -11.35000        -0.91000
H          -1.77000       -10.65000        -1.08000
H          -0.42000       -11.53000        -1.89000
C          -1.56000       -12.69000        -0.42000
H          -2.10000       -12.50000         0.53000
H          -0.77000       -13.46000        -0.24000
C          -2.57000       -13.26000        -1.46000
H          -3.31000       -12.46000        -1.70000
H          -2.03000       -13.53000        -2.39000
C          -3.38000       -14.49000        -0.97000
H          -3.95000       -14.20000        -0.06000
H          -2.70000       -15.32000        -0.71000
C          -4.39000       -14.97000        -2.04000
H          -5.06000       -14.13000        -2.33000
H          -3.84000       -15.30000        -2.95000
C          -5.27000       -16.12000        -1.55000
H          -5.88000       -15.80000        -0.68000
H          -4.66000       -17.00000        -1.27000
H          -5.97000       -16.42000        -2.36000
C           4.56000        -6.70000         0.28000
H           5.24000        -6.26000         1.04000
H           4.80000        -6.24000        -0.70000
C           4.95000        -8.21000         0.28000
H           4.56000        -8.67000         1.22000
H           6.06000        -8.27000         0.35000
C           4.59000        -9.07000        -0.97000
H           3.52000        -8.99000        -1.24000
H           5.16000        -8.70000        -1.84000
C           4.91000       -10.56000        -0.71000
H           4.33000       -10.90000         0.18000
H           6.00000       -10.68000        -0.47000
C           4.56000       -11.48000        -1.89000
H           3.48000       -11.35000        -2.13000
H           5.16000       -11.19000        -2.78000
C           4.81000       -12.97000        -1.56000
H           4.20000       -13.25000        -0.67000
H           5.88000       -13.12000        -1.32000
C           4.42000       -13.88000        -2.74000
H           3.35000       -13.73000        -2.99000
H           5.04000       -13.63000        -3.63000
C           4.62000       -15.36000        -2.40000
H           3.98000       -15.65000        -1.53000
H           5.68000       -15.57000        -2.16000
H           4.32000       -15.99000        -3.27000

