%mem=10GB
%nprocshared=8
#p opt b3lyp/6-311+g(d,p) pop=chelpG

 NDIgT2.pdb

0  1
C          19.52000         2.07000        -0.44000
C          18.84000         3.28000        -0.43000
C          17.42000         3.15000        -0.36000
C          16.95000         1.81000        -0.32000
S          18.37000         0.90000        -0.39000
O          19.51000         4.46000        -0.46000
H          16.85000         4.05000        -0.31000
C          20.98000         1.80000        -0.46000
C          21.58000         0.54000        -0.45000
C          22.99000         0.59000        -0.44000
C          23.49000         1.88000        -0.45000
S          22.20000         2.96000        -0.47000
O          20.86000        -0.62000        -0.43000
H          23.62000        -0.29000        -0.43000
C          18.93000         5.72000        -0.46000
H          18.34000         5.87000         0.46000
H          18.29000         5.84000        -1.36000
C          21.39000        -1.89000        -0.41000
H          22.00000        -2.04000         0.51000
H          22.01000        -2.07000        -1.31000
H          24.54000         2.14000        -0.45000
C          15.57000         1.12000        -0.22000
C          15.68000        -0.29000        -0.06000
H          16.64000        -0.77000        -0.02000
C          14.62000        -1.17000         0.06000
C          14.84000        -2.56000         0.20000
O          15.99000        -2.99000         0.23000
N          13.78000        -3.43000         0.32000
C          12.49000        -2.96000         0.30000
O          11.55000        -3.74000         0.40000
C          12.24000        -1.58000         0.16000
C          10.93000        -1.08000         0.14000
C          10.69000         0.28000         0.01000
H           9.66000         0.61000        -0.00000
C          11.76000         1.19000        -0.12000
C          11.50000         2.55000        -0.25000
O          10.34000         2.95000        -0.26000
N          12.53000         3.45000        -0.39000
C          13.85000         3.02000        -0.40000
O          14.71000         3.85000        -0.55000
C          14.20000         1.64000        -0.24000
C          13.10000         0.73000        -0.11000
C          13.32000        -0.67000         0.04000
H          10.08000        -1.75000         0.23000
H          19.74000         6.48000        -0.50000
H          20.56000        -2.62000        -0.40000
C          12.25000         4.89000        -0.54000
H          11.17000         5.13000        -0.50000
H          12.64000         5.26000        -1.51000
H          12.74000         5.45000         0.29000
C          14.08000        -4.87000         0.45000
H          13.16000        -5.49000         0.52000
H          14.68000        -5.05000         1.37000
H          14.65000        -5.22000        -0.43000

