%mem=10GB
%nprocshared=8
#p opt b3lyp/6-311+g(d,p) pop=chelpG

 NDIgT2_2m_b3lyp.pdb

0  1
C          17.68000        -0.11000        -0.20000
C          17.24000        -1.28000        -0.83000
C          15.85000        -1.46000        -0.82000
C          15.17000        -0.43000        -0.19000
S          16.30000         0.78000         0.40000
O          18.16000        -2.11000        -1.38000
H          15.35000        -2.31000        -1.25000
C          19.04000         0.33000        -0.01000
C          19.47000         1.50000         0.60000
C          20.88000         1.65000         0.65000
C          21.52000         0.58000         0.07000
S          20.43000        -0.61000        -0.53000
O          18.55000         2.37000         1.09000
H          21.40000         2.49000         1.08000
C          17.70000        -3.36000        -1.90000
H          17.04000        -3.21000        -2.76000
H          17.18000        -3.94000        -1.13000
C          19.02000         3.58000         1.69000
H          19.59000         4.18000         0.97000
H          19.64000         3.37000         2.57000
H          22.59000         0.44000        -0.04000
C          13.74000        -0.19000        -0.05000
C          13.33000         1.17000        -0.20000
H          14.08000         1.93000        -0.35000
C          12.01000         1.55000        -0.21000
C          11.68000         2.99000        -0.40000
O          12.52000         3.86000        -0.51000
N          10.31000         3.31000        -0.45000
C           9.26000         2.40000        -0.33000
O           8.10000         2.76000        -0.39000
C           9.63000         0.97000        -0.13000
C           8.63000         0.02000         0.01000
C           8.98000        -1.32000         0.21000
H           8.21000        -2.08000         0.33000
C          10.31000        -1.72000         0.27000
C          10.60000        -3.15000         0.52000
O           9.73000        -3.99000         0.61000
N          11.95000        -3.47000         0.66000
C          13.03000        -2.57000         0.53000
O          14.15000        -3.00000         0.75000
C          12.73000        -1.16000         0.16000
C          11.35000        -0.78000         0.12000
C          10.99000         0.59000        -0.08000
H          18.59000        -3.89000        -2.22000
H          18.13000         4.12000         1.99000
C          12.30000        -4.85000         1.00000
H          11.38000        -5.42000         1.06000
H          12.83000        -4.88000         1.96000
H          12.96000        -5.27000         0.24000
C           9.99000         4.74000        -0.64000
H           8.91000         4.84000        -0.65000
H          10.42000         5.09000        -1.57000
H          10.42000         5.32000         0.18000
C           3.38000        -0.11000        -0.20000
C           2.94000        -1.28000        -0.83000
C           1.55000        -1.46000        -0.82000
C           0.87000        -0.43000        -0.19000
S           2.00000         0.78000         0.40000
O           3.86000        -2.11000        -1.38000
H           1.05000        -2.31000        -1.25000
C           4.74000         0.33000        -0.01000
C           5.17000         1.50000         0.60000
C           6.58000         1.65000         0.65000
C           7.22000         0.58000         0.07000
S           6.13000        -0.61000        -0.53000
O           4.25000         2.37000         1.09000
H           7.10000         2.49000         1.08000
C           3.40000        -3.36000        -1.90000
H           2.74000        -3.21000        -2.76000
H           2.88000        -3.94000        -1.13000
C           4.72000         3.58000         1.69000
H           5.29000         4.18000         0.97000
H           5.34000         3.37000         2.57000
C          -0.56000        -0.19000        -0.05000
C          -0.97000         1.17000        -0.20000
H          -0.23000         1.93000        -0.35000
C          -2.29000         1.55000        -0.21000
C          -2.62000         2.99000        -0.40000
O          -1.78000         3.86000        -0.51000
N          -3.98000         3.31000        -0.45000
C          -5.04000         2.40000        -0.33000
O          -6.20000         2.76000        -0.39000
C          -4.67000         0.97000        -0.13000
C          -5.67000         0.02000         0.01000
C          -5.32000        -1.32000         0.21000
H          -6.09000        -2.08000         0.33000
C          -4.00000        -1.72000         0.27000
C          -3.70000        -3.15000         0.52000
O          -4.58000        -3.99000         0.61000
N          -2.35000        -3.47000         0.66000
C          -1.27000        -2.57000         0.53000
O          -0.15000        -3.00000         0.75000
C          -1.57000        -1.16000         0.16000
C          -2.95000        -0.78000         0.12000
C          -3.31000         0.59000        -0.08000
H          -6.70000         0.33000        -0.04000
H           4.29000        -3.89000        -2.22000
H           3.83000         4.12000         1.99000
C          -2.00000        -4.85000         1.00000
H          -2.92000        -5.42000         1.06000
H          -1.47000        -4.88000         1.96000
H          -1.34000        -5.27000         0.24000
C          -4.31000         4.74000        -0.64000
H          -5.39000         4.84000        -0.65000
H          -3.88000         5.09000        -1.57000
H          -3.88000         5.32000         0.18000

