%mem=100GB 
%nprocshared=16 
# opt=modredundant b3lyp/6-311+g(d,p) scrf=(pcm, solvent=water) 

 NDI_-105.pdb

-2  1
C          -2.56300        -2.99400        -0.40900
C          -2.25700        -1.55100        -0.22400
C          -3.30100        -0.60700        -0.08300
C          -4.65000        -1.02400        -0.11500
C          -4.99200        -2.45900        -0.30400
C          -0.94900        -1.13700        -0.21500
C          -2.96200         0.76400         0.10200
C          -1.59500         1.18800         0.12300
C          -0.56100         0.23200        -0.07200
C          -1.32800         2.61600         0.44600
C          -3.77700         3.11500         0.50800
C          -4.03500         1.67900         0.26800
C          -5.35600         1.25200         0.23000
C          -5.67200        -0.09800         0.03600
H          -6.69900        -0.44200         0.00800
H          -6.13300         1.99700         0.36100
H          -0.19000        -1.89500        -0.36900
N          -2.43200         3.47600         0.60800
N          -3.91600        -3.35300        -0.43800
O          -1.69500        -3.84700        -0.53200
O          -6.14900        -2.85000        -0.34000
O          -4.67600         3.93800         0.62900
O          -0.21200         3.09700         0.59600
C          -2.11100         4.87500         0.91200
H          -1.54000         4.93100         1.84000
H          -1.50000         5.29900         0.11100
H          -3.05000         5.41400         1.00300
C          -4.20600        -4.77900        -0.62500
H          -3.75900        -5.12600        -1.55900
H          -3.77500        -5.35500         0.19600
H          -5.28600        -4.89700        -0.64900
C           0.87600         0.48200        -0.17800
C           1.71600         0.47600        -1.27400
S           1.81300         0.69400         1.30100
C           3.07500         0.64200        -0.94300
H           1.35700         0.36400        -2.28500
C           3.32300         0.78900         0.42500
O           4.12200         0.67200        -1.81100
C           4.58600         1.01600         1.06900
C           3.82100         0.66400        -3.20400
C           4.83500         1.13900         2.43500
S           6.10000         1.18400         0.18300
H           4.77700         0.77300        -3.71700
H           3.35400        -0.28300        -3.50300
H           3.16000         1.49600        -3.47200
C           6.20200         1.36200         2.76100
O           3.79900         1.04400         3.30900
C           6.99300         1.40800         1.64400
H           6.58000         1.48100         3.76700
C           4.08800         1.13800         4.70000
H           8.06200         1.56200         1.60200
H           4.52200         2.11400         4.95000
H           3.13500         1.02300         5.21400
H           4.77300         0.34200         5.01800

D 8 9 32 33 F

