%mem=100GB 
%nprocshared=16 
# opt=modredundant b3lyp/6-311+g(d,p) scrf=(pcm, solvent=water) 

 NDI_135.pdb

-2  1
C          -2.56300        -2.99400        -0.40900
C          -2.25700        -1.55100        -0.22400
C          -3.30100        -0.60700        -0.08300
C          -4.65000        -1.02400        -0.11500
C          -4.99200        -2.45900        -0.30400
C          -0.94900        -1.13700        -0.21500
C          -2.96200         0.76400         0.10200
C          -1.59500         1.18800         0.12300
C          -0.56100         0.23200        -0.07200
C          -1.32800         2.61600         0.44600
C          -3.77700         3.11500         0.50800
C          -4.03500         1.67900         0.26800
C          -5.35600         1.25200         0.23000
C          -5.67200        -0.09800         0.03600
H          -6.69900        -0.44200         0.00800
H          -6.13300         1.99700         0.36100
H          -0.19000        -1.89500        -0.36900
N          -2.43200         3.47600         0.60800
N          -3.91600        -3.35300        -0.43800
O          -1.69500        -3.84700        -0.53200
O          -6.14900        -2.85000        -0.34000
O          -4.67600         3.93800         0.62900
O          -0.21200         3.09700         0.59600
C          -2.11100         4.87500         0.91200
H          -1.54000         4.93100         1.84000
H          -1.50000         5.29900         0.11100
H          -3.05000         5.41400         1.00300
C          -4.20600        -4.77900        -0.62500
H          -3.75900        -5.12600        -1.55900
H          -3.77500        -5.35500         0.19600
H          -5.28600        -4.89700        -0.64900
C           0.87600         0.48200        -0.17800
C           1.95100        -0.16400         0.40100
S           1.42800         1.91100        -1.05200
C           3.18700         0.46400         0.15000
H           1.84700        -1.06600         0.98200
C           3.10100         1.61400        -0.64100
O           4.40600         0.05800         0.59400
C           4.17700         2.44400        -1.10300
C           4.47500        -1.19300         1.27500
C           4.08800         3.60300        -1.87200
S           5.87000         2.10700        -0.75100
H           5.53200        -1.36900         1.47200
H           3.92900        -1.15700         2.22500
H           4.07300        -2.00400         0.65500
C           5.34400         4.20300        -2.17000
O           2.86500         4.04800        -2.26200
C           6.38700         3.50100        -1.62800
H           5.46900         5.10600        -2.75300
C           2.80300         5.25400        -3.01600
H           7.44100         3.73200        -1.69700
H           3.33500         5.15400        -3.97100
H           1.74600         5.43400        -3.20900
H           3.22100         6.09700        -2.45300

D 8 9 32 33 F

