%mem=100GB 
%nprocshared=16 
# opt=modredundant b3lyp/6-311+g(d,p) scrf=(pcm, solvent=water) 

 NDI_150.pdb

-2  1
C          -2.56300        -2.99400        -0.40900
C          -2.25700        -1.55100        -0.22400
C          -3.30100        -0.60700        -0.08300
C          -4.65000        -1.02400        -0.11500
C          -4.99200        -2.45900        -0.30400
C          -0.94900        -1.13700        -0.21500
C          -2.96200         0.76400         0.10200
C          -1.59500         1.18800         0.12300
C          -0.56100         0.23200        -0.07200
C          -1.32800         2.61600         0.44600
C          -3.77700         3.11500         0.50800
C          -4.03500         1.67900         0.26800
C          -5.35600         1.25200         0.23000
C          -5.67200        -0.09800         0.03600
H          -6.69900        -0.44200         0.00800
H          -6.13300         1.99700         0.36100
H          -0.19000        -1.89500        -0.36900
N          -2.43200         3.47600         0.60800
N          -3.91600        -3.35300        -0.43800
O          -1.69500        -3.84700        -0.53200
O          -6.14900        -2.85000        -0.34000
O          -4.67600         3.93800         0.62900
O          -0.21200         3.09700         0.59600
C          -2.11100         4.87500         0.91200
H          -1.54000         4.93100         1.84000
H          -1.50000         5.29900         0.11100
H          -3.05000         5.41400         1.00300
C          -4.20600        -4.77900        -0.62500
H          -3.75900        -5.12600        -1.55900
H          -3.77500        -5.35500         0.19600
H          -5.28600        -4.89700        -0.64900
C           0.87600         0.48200        -0.17800
C           1.95800        -0.30400         0.16800
S           1.42600         2.08000        -0.68500
C           3.19700         0.35100         0.02600
H           1.85600        -1.32300         0.50400
C           3.10700         1.66600        -0.44200
O           4.42400        -0.17100         0.29600
C           4.18300         2.57200        -0.72800
C           4.49000        -1.55400         0.63200
C           4.09000         3.88900        -1.17200
S           5.88000         2.13400        -0.55300
H           5.55000        -1.78900         0.72800
H           3.98600        -1.75500         1.58500
H           4.04400        -2.17500        -0.15400
C           5.34700         4.52900        -1.36600
O           2.86300         4.43500        -1.37900
C           6.39400         3.69900        -1.07000
H           5.46900         5.54900        -1.70600
C           2.79900         5.79400        -1.79800
H           7.45000         3.92600        -1.12600
H           3.28800         5.93300        -2.77100
H           1.74000         6.03100        -1.88900
H           3.26000         6.46000        -1.06000

D 8 9 32 33 F

