%mem=10GB 
%nprocshared=8 
# opt=modredundant wb97xd/6-311+g(d,p) 

 NDI_110.pdb

0  1
C          -2.56300        -2.99400        -0.40900
C          -2.25700        -1.55100        -0.22400
C          -3.30100        -0.60700        -0.08300
C          -4.65000        -1.02400        -0.11500
C          -4.99200        -2.45900        -0.30400
C          -0.94900        -1.13700        -0.21500
C          -2.96200         0.76400         0.10200
C          -1.59500         1.18800         0.12300
C          -0.56100         0.23200        -0.07200
C          -1.32800         2.61600         0.44600
C          -3.77700         3.11500         0.50800
C          -4.03500         1.67900         0.26800
C          -5.35600         1.25200         0.23000
C          -5.67200        -0.09800         0.03600
H          -6.69900        -0.44200         0.00800
H          -6.13300         1.99700         0.36100
H          -0.19000        -1.89500        -0.36900
N          -2.43200         3.47600         0.60800
N          -3.91600        -3.35300        -0.43800
O          -1.69500        -3.84700        -0.53200
O          -6.14900        -2.85000        -0.34000
O          -4.67600         3.93800         0.62900
O          -0.21200         3.09700         0.59600
C          -2.11100         4.87500         0.91200
H          -1.54000         4.93100         1.84000
H          -1.50000         5.29900         0.11100
H          -3.05000         5.41400         1.00300
C          -4.20600        -4.77900        -0.62500
H          -3.75900        -5.12600        -1.55900
H          -3.77500        -5.35500         0.19600
H          -5.28600        -4.89700        -0.64900
C           0.87600         0.48200        -0.17800
C           1.91200         0.18500         0.68700
S           1.47400         1.44500        -1.52900
C           3.15400         0.70800         0.27800
H           1.77500        -0.40000         1.58200
C           3.11400         1.42300        -0.92300
O           4.34000         0.58000         0.93100
C           4.21100         2.03500        -1.61700
C           4.37300        -0.27200         2.07300
C           4.16500         2.76700        -2.80300
S           5.87500         1.95300        -1.04700
H           5.41400        -0.30200         2.39400
H           3.75400         0.12900         2.88400
H           4.03400        -1.28400         1.82200
C           5.43200         3.24700        -3.24100
O           2.97000         2.95300        -3.42300
C           6.43900         2.88200        -2.38900
H           5.58800         3.83200        -4.13700
C           2.95000         3.73400        -4.61200
H           7.49200         3.11200        -2.47800
H           3.55700         3.27200        -5.40200
H           1.90900         3.76900        -4.93200
H           3.30900         4.75300        -4.42500

D 8 9 32 33 F

