%mem=10GB 
%nprocshared=8 
# opt=modredundant b3lyp/6-311+g(d,p) 

 NDI_55.pdb

0  1
C          -2.56300        -2.99400        -0.40900
C          -2.25700        -1.55100        -0.22400
C          -3.30100        -0.60700        -0.08300
C          -4.65000        -1.02400        -0.11500
C          -4.99200        -2.45900        -0.30400
C          -0.94900        -1.13700        -0.21500
C          -2.96200         0.76400         0.10200
C          -1.59500         1.18800         0.12300
C          -0.56100         0.23200        -0.07200
C          -1.32800         2.61600         0.44600
C          -3.77700         3.11500         0.50800
C          -4.03500         1.67900         0.26800
C          -5.35600         1.25200         0.23000
C          -5.67200        -0.09800         0.03600
H          -6.69900        -0.44200         0.00800
H          -6.13300         1.99700         0.36100
H          -0.19000        -1.89500        -0.36900
N          -2.43200         3.47600         0.60800
N          -3.91600        -3.35300        -0.43800
O          -1.69500        -3.84700        -0.53200
O          -6.14900        -2.85000        -0.34000
O          -4.67600         3.93800         0.62900
O          -0.21200         3.09700         0.59600
C          -2.11100         4.87500         0.91200
H          -1.54000         4.93100         1.84000
H          -1.50000         5.29900         0.11100
H          -3.05000         5.41400         1.00300
C          -4.20600        -4.77900        -0.62500
H          -3.75900        -5.12600        -1.55900
H          -3.77500        -5.35500         0.19600
H          -5.28600        -4.89700        -0.64900
C           0.87600         0.48200        -0.17800
C           1.74500         1.13500         0.67400
S           1.70700         0.04400        -1.67100
C           3.04500         1.27800         0.15100
H           1.45100         1.49000         1.64900
C           3.21900         0.73000        -1.12400
O           4.10100         1.88000         0.76100
C           4.42600         0.67800        -1.90000
C           3.92900         2.29800         2.11200
C           4.59200         0.15300        -3.18000
S           5.96800         1.30400        -1.32200
H           4.90000         2.67400         2.43600
H           3.18500         3.10100         2.18700
H           3.62600         1.46000         2.75100
C           5.92100         0.25000        -3.68200
O           3.52300        -0.39000        -3.81900
C           6.76300         0.84900        -2.78500
H           6.23500        -0.10300        -4.65500
C           3.71500        -0.88600        -5.13900
H           7.81900         1.05100        -2.90800
H           4.44200        -1.70800        -5.15300
H           2.74400        -1.25700        -5.46500
H           4.04900        -0.09300        -5.81700

D 8 9 32 33 F
D 33 35 38 40 F
D 46 41 47 50 F
D 10 18 24 25 F
D 1 19 28 30 F
D 9 8 10 23 F
D 6 2 1 20 F

