%mem=10GB 
%nprocshared=8 
# opt=modredundant b3lyp/6-311+g(d,p) 

 NDI_-170.pdb

0  1
C          -2.56300        -2.99400        -0.40900
C          -2.25700        -1.55100        -0.22400
C          -3.30100        -0.60700        -0.08300
C          -4.65000        -1.02400        -0.11500
C          -4.99200        -2.45900        -0.30400
C          -0.94900        -1.13700        -0.21500
C          -2.96200         0.76400         0.10200
C          -1.59500         1.18800         0.12300
C          -0.56100         0.23200        -0.07200
C          -1.32800         2.61600         0.44600
C          -3.77700         3.11500         0.50800
C          -4.03500         1.67900         0.26800
C          -5.35600         1.25200         0.23000
C          -5.67200        -0.09800         0.03600
H          -6.69900        -0.44200         0.00800
H          -6.13300         1.99700         0.36100
H          -0.19000        -1.89500        -0.36900
N          -2.43200         3.47600         0.60800
N          -3.91600        -3.35300        -0.43800
O          -1.69500        -3.84700        -0.53200
O          -6.14900        -2.85000        -0.34000
O          -4.67600         3.93800         0.62900
O          -0.21200         3.09700         0.59600
C          -2.11100         4.87500         0.91200
H          -1.54000         4.93100         1.84000
H          -1.50000         5.29900         0.11100
H          -3.05000         5.41400         1.00300
C          -4.20600        -4.77900        -0.62500
H          -3.75900        -5.12600        -1.55900
H          -3.77500        -5.35500         0.19600
H          -5.28600        -4.89700        -0.64900
C           0.87600         0.48200        -0.17800
C           1.91400        -0.35300        -0.54400
S           1.51100         2.03400         0.36800
C           3.18700         0.23400        -0.39800
H           1.75700        -1.35300        -0.91400
C           3.16600         1.54800         0.08200
O           4.38300        -0.34900        -0.67400
C           4.28400         2.42200         0.29500
C           4.36200        -1.63200        -1.29400
C           4.26400         3.72300         0.79500
S           5.94700         1.96000        -0.06000
H           5.40200        -1.88200        -1.50200
H           3.93300        -2.38800        -0.62500
H           3.79200        -1.61000        -2.23100
C           5.54800         4.33100         0.88900
O           3.07500         4.28500         1.13500
C           6.54300         3.49400         0.46200
H           5.72500         5.33400         1.25400
C           3.08900         5.60200         1.67500
H           7.60400         3.69800         0.42800
H           3.49500         6.32300         0.95500
H           2.05000         5.85000         1.88800
H           3.67200         5.64500         2.60200

D 8 9 32 33 F
D 33 35 38 40 F
D 46 41 47 50 F
D 10 18 24 25 F
D 1 19 28 30 F
D 9 8 10 23 F
D 6 2 1 20 F

