%mem=10GB 
%nprocshared=8 
# opt=modredundant b3lyp/6-311+g(d,p) 

 NDI_140.pdb

0  1
C          -2.56300        -2.99400        -0.40900
C          -2.25700        -1.55100        -0.22400
C          -3.30100        -0.60700        -0.08300
C          -4.65000        -1.02400        -0.11500
C          -4.99200        -2.45900        -0.30400
C          -0.94900        -1.13700        -0.21500
C          -2.96200         0.76400         0.10200
C          -1.59500         1.18800         0.12300
C          -0.56100         0.23200        -0.07200
C          -1.32800         2.61600         0.44600
C          -3.77700         3.11500         0.50800
C          -4.03500         1.67900         0.26800
C          -5.35600         1.25200         0.23000
C          -5.67200        -0.09800         0.03600
H          -6.69900        -0.44200         0.00800
H          -6.13300         1.99700         0.36100
H          -0.19000        -1.89500        -0.36900
N          -2.43200         3.47600         0.60800
N          -3.91600        -3.35300        -0.43800
O          -1.69500        -3.84700        -0.53200
O          -6.14900        -2.85000        -0.34000
O          -4.67600         3.93800         0.62900
O          -0.21200         3.09700         0.59600
C          -2.11100         4.87500         0.91200
H          -1.54000         4.93100         1.84000
H          -1.50000         5.29900         0.11100
H          -3.05000         5.41400         1.00300
C          -4.20600        -4.77900        -0.62500
H          -3.75900        -5.12600        -1.55900
H          -3.77500        -5.35500         0.19600
H          -5.28600        -4.89700        -0.64900
C           0.87600         0.48200        -0.17800
C           1.95500        -0.21700         0.32800
S           1.42500         1.97800        -0.93400
C           3.19100         0.42300         0.11200
H           1.85300        -1.16500         0.83000
C           3.10200         1.63700        -0.57600
O           4.41400        -0.02700         0.50200
C           4.17700         2.49700        -0.98200
C           4.48400        -1.33100         1.07100
C           4.08500         3.71800        -1.64700
S           5.87300         2.12100        -0.68600
H           5.54300        -1.53000         1.23600
H           3.95200        -1.37400         2.03000
H           4.06800        -2.08400         0.39100
C           5.34100         4.33500        -1.91200
O           2.85900         4.20200        -1.97900
C           6.38600         3.58300        -1.44800
H           5.46300         5.28300        -2.41700
C           2.79500         5.46800        -2.62600
H           7.44100         3.81300        -1.51200
H           3.31200         5.44800        -3.59400
H           1.73600         5.67100        -2.78700
H           3.22600         6.25800        -1.99900

D 8 9 32 33 F
D 33 35 38 40 F
D 46 41 47 50 F
D 10 18 24 25 F
D 1 19 28 30 F
D 9 8 10 23 F
D 6 2 1 20 F

