%mem=10GB
%nprocshared=4
# opt=modredundant b3lyp/6-311+g(d,p)

 OBT_170.pdb

0  1
C          -0.15900        -2.15700         0.00200
C          -1.07700        -3.18100        -0.18900
C          -0.51600        -4.48700        -0.13100
C           0.82900        -4.45900         0.10600
S           1.43900        -2.85200         0.25900
O          -2.38700        -2.87800        -0.40900
H          -1.08000        -5.40100        -0.25600
C          -0.40000        -0.73700         0.00200
C          -1.62000        -0.07300         0.00100
C          -1.52000         1.33900         0.00100
C          -0.21700         1.78900         0.00100
S           0.90300         0.44500         0.00100
O          -2.77500        -0.79500         0.00100
H          -2.37200         2.00300         0.00100
C          -3.30600        -3.95300        -0.60000
H          -3.32700        -4.60100         0.28200
H          -3.02100        -4.54900        -1.47400
C          -4.01400        -0.08800         0.00100
H          -4.09500         0.54300        -0.89100
H          -4.09600         0.54400         0.89200
C           0.26000         3.15100         0.00100
C           1.56000         3.60700         0.00200
C           1.63100         5.02200         0.00100
C           0.39800         5.66200        -0.00100
C           0.47400         7.08100        -0.00200
C           1.77200         7.50600         0.00000
S          -0.89900         4.49600        -0.00200
S           2.92600         6.19100         0.00300
H           2.41800         2.94800         0.00400
H          -0.37400         7.75200        -0.00300
H           1.50100        -5.29800         0.19800
H           2.13600         8.52200         0.00000
H          -4.72900        -0.67600         0.03400
H          -4.26100        -3.89300        -0.76900

D 5 1 8 9 F

