%mem=10GB
%nprocshared=4
# opt=modredundant b3lyp/6-311+g(d,p)

 OBT_-150.pdb

0  1
C          -0.15900        -2.15700         0.00200
C          -0.95000        -3.15900         0.54800
C          -0.43000        -4.47300         0.37700
C           0.75900        -4.47100        -0.29700
S           1.26500        -2.88100        -0.73900
O          -2.11300        -2.83100         1.17700
H          -0.90900        -5.37200         0.73700
C          -0.40000        -0.73700         0.00200
C          -1.62000        -0.07300         0.00100
C          -1.52000         1.33900         0.00100
C          -0.21700         1.78900         0.00100
S           0.90300         0.44500         0.00100
O          -2.77500        -0.79500         0.00100
H          -2.37200         2.00300         0.00100
C          -2.90200        -3.88400         1.72800
H          -2.33500        -4.43300         2.48700
H          -3.21300        -4.58100         0.94200
C          -4.01400        -0.08800         0.00100
H          -4.09500         0.54300        -0.89100
H          -4.09600         0.54400         0.89200
C           0.26000         3.15100         0.00100
C           1.56000         3.60700         0.00200
C           1.63100         5.02200         0.00100
C           0.39800         5.66200        -0.00100
C           0.47400         7.08100        -0.00200
C           1.77200         7.50600         0.00000
S          -0.89900         4.49600        -0.00200
S           2.92600         6.19100         0.00300
H           2.41800         2.94800         0.00400
H          -0.37400         7.75200        -0.00300
H           1.36900        -5.32100        -0.56200
H           2.13600         8.52200         0.00000
H          -4.72900        -0.67600         0.03400
H          -3.75000        -3.80600         2.19700

D 5 1 8 9 F

