%mem=10GB
%nprocshared=4
# opt=modredundant b3lyp/6-311+g(d,p)

 OBT_-160.pdb

0  1
C          -0.15900        -2.15700         0.00200
C          -1.02900        -3.17300         0.37500
C          -0.48400        -4.48200         0.25800
C           0.80200        -4.46400        -0.20200
S           1.37300        -2.86300        -0.50500
O          -2.28400        -2.86000         0.80500
H          -1.01500        -5.39000         0.50400
C          -0.40000        -0.73700         0.00200
C          -1.62000        -0.07300         0.00100
C          -1.52000         1.33900         0.00100
C          -0.21700         1.78900         0.00100
S           0.90300         0.44500         0.00100
O          -2.77500        -0.79500         0.00100
H          -2.37200         2.00300         0.00100
C          -3.15300        -3.92700         1.18200
H          -2.72200        -4.49800         2.01000
H          -3.32300        -4.60000         0.33500
C          -4.01400        -0.08800         0.00100
H          -4.09500         0.54300        -0.89100
H          -4.09600         0.54400         0.89200
C           0.26000         3.15100         0.00100
C           1.56000         3.60700         0.00200
C           1.63100         5.02200         0.00100
C           0.39800         5.66200        -0.00100
C           0.47400         7.08100        -0.00200
C           1.77200         7.50600         0.00000
S          -0.89900         4.49600        -0.00200
S           2.92600         6.19100         0.00300
H           2.41800         2.94800         0.00400
H          -0.37400         7.75200        -0.00300
H           1.45100        -5.30700        -0.38400
H           2.13600         8.52200         0.00000
H          -4.72900        -0.67600         0.03400
H          -4.06900        -3.86000         1.50100

D 5 1 8 9 F

