%mem=10GB
%nprocshared=4
# opt=modredundant b3lyp/6-311+g(d,p)

 OBT_10.pdb

0  1
C          -0.15900        -2.15700         0.00200
C           1.04600        -2.82100        -0.18700
C           0.94800        -4.23900        -0.12700
C          -0.33200        -4.65600         0.10600
S          -1.43800        -3.34000         0.25900
O           2.18300        -2.10200        -0.40500
H           1.78100        -4.91600        -0.25200
C          -0.40000        -0.73700         0.00200
C          -1.62000        -0.07300         0.00100
C          -1.52000         1.33900         0.00100
C          -0.21700         1.78900         0.00100
S           0.90300         0.44500         0.00100
O          -2.77500        -0.79500         0.00100
H          -2.37200         2.00300         0.00100
C           3.40500        -2.81400        -0.59600
H           3.33300        -3.47100        -1.46900
H           3.63800        -3.41900         0.28700
C          -4.01400        -0.08800         0.00100
H          -4.09500         0.54300        -0.89100
H          -4.09600         0.54400         0.89200
C           0.26000         3.15100         0.00100
C           1.56000         3.60700         0.00200
C           1.63100         5.02200         0.00100
C           0.39800         5.66200        -0.00100
C           0.47400         7.08100        -0.00200
C           1.77200         7.50600         0.00000
S          -0.89900         4.49600        -0.00200
S           2.92600         6.19100         0.00300
H           2.41800         2.94800         0.00400
H          -0.37400         7.75200        -0.00300
H          -0.69000        -5.67000         0.19800
H           2.13600         8.52200         0.00000
H          -4.72900        -0.67600         0.03400
H           4.28800        -2.44200        -0.75600

D 5 1 8 9 F

