%mem=10GB
%nprocshared=4
# opt=modredundant b3lyp/6-311+g(d,p)

 OBT_130.pdb

0  1
C          -0.15900        -2.15700         0.00200
C          -0.70800        -3.11800        -0.83600
C          -0.26100        -4.44400        -0.57700
C           0.62700        -4.49400         0.46000
S           0.93900        -2.93700         1.13700
O          -1.59300        -2.74300        -1.80200
H          -0.58200        -5.31700        -1.12800
C          -0.40000        -0.73700         0.00200
C          -1.62000        -0.07300         0.00100
C          -1.52000         1.33900         0.00100
C          -0.21700         1.78900         0.00100
S           0.90300         0.44500         0.00100
O          -2.77500        -0.79500         0.00100
H          -2.37200         2.00300         0.00100
C          -2.13900        -3.75500        -2.64600
H          -2.69000        -4.49300        -2.05400
H          -1.34200        -4.26400        -3.19900
C          -4.01400        -0.08800         0.00100
H          -4.09500         0.54300        -0.89100
H          -4.09600         0.54400         0.89200
C           0.26000         3.15100         0.00100
C           1.56000         3.60700         0.00200
C           1.63100         5.02200         0.00100
C           0.39800         5.66200        -0.00100
C           0.47400         7.08100        -0.00200
C           1.77200         7.50600         0.00000
S          -0.89900         4.49600        -0.00200
S           2.92600         6.19100         0.00300
H           2.41800         2.94800         0.00400
H          -0.37400         7.75200        -0.00300
H           1.12100        -5.36300         0.86700
H           2.13600         8.52200         0.00000
H          -4.72900        -0.67600         0.03400
H          -2.77200        -3.64000        -3.37500

D 5 1 8 9 F

