%mem=100GB 
%nprocshared=16 
# mp2/aug-cc-pvdz 

 pgT2_TT_-90.pdb

0  1
C           3.80000         0.20000         0.60000
C           2.42000         0.16000         1.00000
C           1.57000         0.06000        -0.05000
C           3.96000         0.13000        -0.74000
S           2.43000         0.01000        -1.55000
H           4.88000         0.14000        -1.29000
C           0.09000        -0.01000         0.00000
S          -0.72000        -1.56000         0.12000
C          -2.27000        -0.77000         0.12000
C          -2.13000         0.59000         0.03000
C          -0.77000         1.03000        -0.04000
H          -0.45000         2.06000        -0.12000
S          -3.68000         1.38000         0.02000
C          -4.48000        -0.16000         0.15000
C          -3.63000        -1.21000         0.19000
H          -5.56000        -0.20000         0.18000
H          -3.95000        -2.24000         0.26000
H           2.09000         0.20000         2.03000
O           4.84000         0.31000         1.46000
H           4.53000         0.31000         2.35000

D 2 3 7 8 F

