%mem=100GB 
%nprocshared=16 
# mp2/aug-cc-pvdz 

 pgT2_TT_-165.pdb

0  1
C           3.76000         0.77000         0.07000
C           2.37000         1.08000         0.18000
C           1.57000         0.00000         0.03000
C           4.00000        -0.54000        -0.17000
S           2.51000        -1.43000        -0.27000
H           4.95000        -1.03000        -0.28000
C           0.10000        -0.02000         0.04000
S          -0.78000        -1.54000         0.22000
C          -2.30000        -0.70000         0.11000
C          -2.11000         0.64000        -0.05000
C          -0.73000         1.04000        -0.10000
H          -0.40000         2.05000        -0.25000
S          -3.63000         1.48000        -0.17000
C          -4.49000        -0.03000         0.01000
C          -3.68000        -1.10000         0.14000
H          -5.57000        -0.03000        -0.00000
H          -4.03000        -2.11000         0.26000
H           2.00000         2.08000         0.39000
O           4.75000         1.68000         0.19000
H           4.41000         2.53000         0.38000

D 2 3 7 8 F

