%mem=100GB 
%nprocshared=16 
# mp2/aug-cc-pvdz 

 pgT2_TT_140.pdb

0  1
C           3.76000         0.73000        -0.19000
C           2.37000         1.01000        -0.38000
C           1.57000        -0.00000         0.02000
C           3.99000        -0.49000         0.34000
S           2.50000        -1.33000         0.64000
H           4.94000        -0.94000         0.56000
C           0.10000        -0.03000        -0.01000
S          -0.77000        -1.48000        -0.48000
C          -2.29000        -0.68000        -0.25000
C          -2.11000         0.62000         0.14000
C          -0.73000         0.99000         0.29000
H          -0.39000         1.96000         0.63000
S          -3.63000         1.42000         0.38000
C          -4.49000        -0.03000        -0.08000
C          -3.67000        -1.06000        -0.39000
H          -5.56000        -0.03000        -0.09000
H          -4.01000        -2.03000        -0.69000
H           2.00000         1.92000        -0.83000
O           4.76000         1.58000        -0.51000
H           4.42000         2.37000        -0.90000

D 2 3 7 8 F

