%mem=100GB 
%nprocshared=16 
# mp2/aug-cc-pvdz 

 pgT2_TT_35.pdb

0  1
C           3.82000         0.39000         0.25000
C           2.46000         0.84000         0.36000
C           1.56000        -0.10000        -0.01000
C           3.92000        -0.88000        -0.19000
S           2.36000        -1.56000        -0.50000
H           4.82000        -1.45000        -0.35000
C           0.10000         0.00000        -0.01000
S          -0.67000         1.53000        -0.41000
C          -2.25000         0.82000        -0.17000
C          -2.14000        -0.49000         0.17000
C          -0.80000        -0.97000         0.26000
H          -0.52000        -1.98000         0.54000
S          -3.71000        -1.20000         0.39000
C          -4.47000         0.32000         0.02000
C          -3.59000         1.31000        -0.26000
H          -5.55000         0.40000         0.02000
H          -3.88000         2.31000        -0.52000
H           2.19000         1.83000         0.72000
O           4.89000         1.15000         0.56000
H           4.63000         2.01000         0.83000

D 2 3 7 8 F

