%mem=100GB 
%nprocshared=16 
# mp2/aug-cc-pvdz 

 pgT2_TT_-40.pdb

0  1
C          -3.82000         0.38000         0.28000
C          -2.46000         0.83000         0.41000
C          -1.56000        -0.10000        -0.01000
C          -3.92000        -0.87000        -0.22000
S          -2.36000        -1.53000        -0.57000
H          -4.82000        -1.42000        -0.40000
C          -0.10000         0.01000        -0.00000
S           0.68000         1.52000        -0.45000
C           2.25000         0.82000        -0.19000
C           2.14000        -0.49000         0.19000
C           0.80000        -0.96000         0.30000
H           0.51000        -1.96000         0.60000
S           3.71000        -1.19000         0.44000
C           4.47000         0.32000         0.02000
C           3.60000         1.29000        -0.30000
H           5.55000         0.39000         0.02000
H           3.88000         2.29000        -0.58000
H          -2.18000         1.79000         0.81000
O          -4.89000         1.12000         0.63000
H          -4.63000         1.97000         0.94000

D 2 3 7 8 F

