%mem=100GB 
%nprocshared=16 
# mp2/aug-cc-pvdz 

 pgT2_TT_-15.pdb

0  1
C          -3.82000         0.41000         0.12000
C          -2.47000         0.88000         0.16000
C          -1.56000        -0.11000         0.00000
C          -3.92000        -0.92000        -0.08000
S          -2.35000        -1.64000        -0.23000
H          -4.82000        -1.51000        -0.15000
C          -0.10000         0.00000        -0.01000
S           0.67000         1.57000        -0.19000
C           2.24000         0.85000        -0.08000
C           2.15000        -0.50000         0.08000
C           0.81000        -1.00000         0.12000
H           0.54000        -2.03000         0.26000
S           3.72000        -1.23000         0.18000
C           4.47000         0.34000         0.01000
C           3.59000         1.34000        -0.12000
H           5.55000         0.41000         0.02000
H           3.86000         2.38000        -0.24000
H          -2.21000         1.91000         0.33000
O          -4.91000         1.21000         0.26000
H          -4.65000         2.11000         0.38000

D 2 3 7 8 F

