%mem=100GB 
%nprocshared=16 
# mp2/aug-cc-pvdz 

 pgT2_TT_75.pdb

0  1
C           3.81000         0.24000         0.51000
C           2.45000         0.58000         0.79000
C           1.57000        -0.07000        -0.00000
C           3.94000        -0.66000        -0.49000
S           2.39000        -1.12000        -1.12000
H           4.85000        -1.08000        -0.88000
C           0.10000         0.02000         0.02000
S          -0.71000         1.44000        -0.63000
C          -2.26000         0.75000        -0.27000
C          -2.13000        -0.48000         0.29000
C          -0.78000        -0.91000         0.46000
H          -0.47000        -1.85000         0.88000
S          -3.69000        -1.17000         0.66000
C          -4.48000         0.24000         0.03000
C          -3.62000         1.18000        -0.43000
H          -5.56000         0.30000         0.04000
H          -3.93000         2.12000        -0.85000
H           2.14000         1.27000         1.57000
O           4.87000         0.75000         1.18000
H           4.60000         1.40000         1.81000

D 2 3 7 8 F

