%mem=100GB 
%nprocshared=16 
# mp2/aug-cc-pvdz 

 pgT2_TT_80.pdb

0  1
C           3.81000         0.18000         0.56000
C           2.44000         0.47000         0.88000
C           1.57000        -0.07000        -0.01000
C           3.94000        -0.58000        -0.55000
S           2.40000        -0.95000        -1.25000
H           4.86000        -0.93000        -0.99000
C           0.10000         0.02000         0.02000
S          -0.72000         1.46000        -0.57000
C          -2.27000         0.76000        -0.24000
C          -2.13000        -0.50000         0.28000
C          -0.77000        -0.93000         0.42000
H          -0.46000        -1.89000         0.80000
S          -3.68000        -1.21000         0.61000
C          -4.48000         0.23000         0.05000
C          -3.63000         1.19000        -0.37000
H          -5.56000         0.28000         0.06000
H          -3.94000         2.15000        -0.76000
H           2.13000         1.05000         1.73000
O           4.86000         0.60000         1.29000
H           4.58000         1.15000         2.00000

D 2 3 7 8 F

