%mem=100GB 
%nprocshared=16 
# mp2/aug-cc-pvdz 

 pgT2_TT_-45.pdb

0  1
C          -3.82000         0.37000         0.31000
C          -2.46000         0.81000         0.45000
C          -1.56000        -0.09000        -0.01000
C          -3.92000        -0.85000        -0.25000
S          -2.36000        -1.50000        -0.64000
H          -4.82000        -1.40000        -0.46000
C          -0.10000         0.01000         0.00000
S           0.68000         1.50000        -0.49000
C           2.25000         0.81000        -0.21000
C           2.14000        -0.49000         0.21000
C           0.79000        -0.95000         0.33000
H           0.51000        -1.94000         0.67000
S           3.71000        -1.19000         0.48000
C           4.48000         0.31000         0.02000
C           3.60000         1.27000        -0.33000
H           5.55000         0.38000         0.02000
H           3.89000         2.26000        -0.64000
H          -2.18000         1.76000         0.90000
O          -4.89000         1.09000         0.70000
H          -4.63000         1.93000         1.04000

D 2 3 7 8 F

