%mem=100GB 
%nprocshared=16 
# mp2/aug-cc-pvdz 

 pgT2_TT_65.pdb

0  1
C           3.82000         0.31000         0.44000
C           2.45000         0.70000         0.67000
C           1.57000        -0.07000        -0.00000
C           3.93000        -0.75000        -0.39000
S           2.37000        -1.30000        -0.92000
H           4.84000        -1.24000        -0.71000
C           0.10000         0.02000         0.02000
S          -0.70000         1.45000        -0.63000
C          -2.26000         0.76000        -0.27000
C          -2.13000        -0.48000         0.28000
C          -0.78000        -0.91000         0.44000
H          -0.48000        -1.86000         0.86000
S          -3.69000        -1.16000         0.63000
C          -4.48000         0.27000         0.02000
C          -3.62000         1.20000        -0.43000
H          -5.55000         0.32000         0.02000
H          -3.92000         2.15000        -0.84000
H           2.16000         1.52000         1.31000
O           4.89000         0.92000         1.00000
H           4.62000         1.66000         1.50000

D 2 3 7 8 F

