%mem=100GB 
%nprocshared=16 
# mp2/aug-cc-pvdz 

 pgT2_TT_-105.pdb

0  1
C           3.78000         0.57000         0.38000
C           2.39000         0.78000         0.68000
C           1.57000         0.02000        -0.08000
C           3.98000        -0.34000        -0.58000
S           2.48000        -0.97000        -1.17000
H           4.92000        -0.67000        -0.98000
C           0.09000        -0.02000        -0.03000
S          -0.74000        -1.38000         0.71000
C          -2.28000        -0.64000         0.40000
C          -2.13000         0.56000        -0.22000
C          -0.76000         0.93000        -0.47000
H          -0.44000         1.83000        -0.95000
S          -3.67000         1.30000        -0.54000
C          -4.49000        -0.06000         0.19000
C          -3.64000        -1.01000         0.64000
H          -5.56000        -0.07000         0.23000
H          -3.96000        -1.92000         1.11000
H           2.03000         1.46000         1.44000
O           4.79000         1.22000         1.01000
H           4.46000         1.80000         1.67000

D 2 3 7 8 F

