%mem=100GB 
%nprocshared=16 
# mp2/aug-cc-pvdz 

 pgT2_TT_160.pdb

0  1
C           3.76000         0.76000        -0.09000
C           2.37000         1.07000        -0.23000
C           1.57000        -0.00000        -0.03000
C           3.99000        -0.53000         0.21000
S           2.51000        -1.41000         0.35000
H           4.94000        -1.01000         0.36000
C           0.10000        -0.02000        -0.05000
S          -0.78000        -1.53000        -0.29000
C          -2.30000        -0.70000        -0.14000
C          -2.11000         0.64000         0.07000
C          -0.73000         1.03000         0.14000
H          -0.39000         2.03000         0.33000
S          -3.63000         1.47000         0.22000
C          -4.49000        -0.03000        -0.02000
C          -3.67000        -1.09000        -0.19000
H          -5.56000        -0.03000        -0.01000
H          -4.03000        -2.10000        -0.35000
H           2.00000         2.05000        -0.49000
O           4.76000         1.66000        -0.25000
H           4.41000         2.51000        -0.49000

D 2 3 7 8 F

