%mem=100GB 
%nprocshared=16 
# mp2/aug-cc-pvdz 

 pgT2_TT_-70.pdb

0  1
C          -3.82000         0.28000         0.47000
C          -2.45000         0.65000         0.73000
C          -1.57000        -0.07000        -0.00000
C          -3.93000        -0.72000        -0.43000
S          -2.38000        -1.22000        -1.01000
H          -4.84000        -1.17000        -0.79000
C          -0.10000         0.02000         0.02000
S           0.71000         1.44000        -0.64000
C           2.26000         0.76000        -0.28000
C           2.13000        -0.48000         0.29000
C           0.78000        -0.91000         0.46000
H           0.47000        -1.85000         0.89000
S           3.69000        -1.16000         0.65000
C           4.48000         0.26000         0.02000
C           3.62000         1.19000        -0.44000
H           5.56000         0.31000         0.02000
H           3.93000         2.13000        -0.86000
H          -2.16000         1.42000         1.43000
O          -4.88000         0.85000         1.08000
H          -4.61000         1.55000         1.64000

D 2 3 7 8 F

