%mem=100GB 
%nprocshared=16 
# mp2/aug-cc-pvdz 

 pgT2_TT_125.pdb

0  1
C           3.76000         0.68000        -0.27000
C           2.37000         0.95000        -0.49000
C           1.57000         0.01000         0.06000
C           3.99000        -0.45000         0.42000
S           2.50000        -1.23000         0.84000
H           4.94000        -0.87000         0.71000
C           0.10000        -0.03000         0.02000
S          -0.76000        -1.43000        -0.60000
C          -2.28000        -0.66000        -0.33000
C          -2.12000         0.59000         0.19000
C          -0.75000         0.96000         0.40000
H          -0.41000         1.89000         0.83000
S          -3.64000         1.37000         0.47000
C          -4.49000        -0.04000        -0.14000
C          -3.66000        -1.03000        -0.52000
H          -5.56000        -0.04000        -0.17000
H          -3.99000        -1.97000        -0.93000
H           1.99000         1.79000        -1.05000
O           4.76000         1.48000        -0.71000
H           4.42000         2.21000        -1.19000

D 2 3 7 8 F

