%mem=100GB 
%nprocshared=16 
# mp2/aug-cc-pvdz 

 pgT2_TT_145.pdb

0  1
C           3.76000         0.74000        -0.16000
C           2.37000         1.03000        -0.35000
C           1.57000        -0.00000         0.00000
C           3.99000        -0.51000         0.31000
S           2.50000        -1.35000         0.57000
H           4.94000        -0.97000         0.52000
C           0.10000        -0.03000        -0.02000
S          -0.77000        -1.50000        -0.44000
C          -2.29000        -0.68000        -0.23000
C          -2.11000         0.62000         0.13000
C          -0.73000         1.00000         0.25000
H          -0.39000         1.98000         0.56000
S          -3.63000         1.44000         0.34000
C          -4.49000        -0.03000        -0.06000
C          -3.67000        -1.07000        -0.34000
H          -5.56000        -0.03000        -0.07000
H          -4.02000        -2.05000        -0.61000
H           2.00000         1.96000        -0.75000
O           4.76000         1.60000        -0.45000
H           4.42000         2.41000        -0.80000

D 2 3 7 8 F

