%mem=100GB 
%nprocshared=16 
# mp2/aug-cc-pvdz 

 pgT2_TT_-30.pdb

0  1
C          -3.82000         0.40000         0.22000
C          -2.46000         0.86000         0.31000
C          -1.56000        -0.10000        -0.00000
C          -3.92000        -0.89000        -0.16000
S          -2.36000        -1.59000        -0.44000
H          -4.82000        -1.47000        -0.30000
C          -0.10000         0.00000        -0.01000
S           0.67000         1.54000        -0.36000
C           2.24000         0.83000        -0.15000
C           2.15000        -0.50000         0.14000
C           0.80000        -0.98000         0.23000
H           0.53000        -1.99000         0.48000
S           3.72000        -1.21000         0.34000
C           4.47000         0.33000         0.02000
C           3.59000         1.32000        -0.23000
H           5.55000         0.40000         0.02000
H           3.87000         2.33000        -0.45000
H          -2.19000         1.85000         0.62000
O          -4.90000         1.17000         0.49000
H          -4.63000         2.04000         0.73000

D 2 3 7 8 F

