%mem=100GB 
%nprocshared=16 
# mp2/aug-cc-pvdz 

 pgT2_TT_135.pdb

0  1
C           3.76000         0.71000        -0.21000
C           2.37000         0.99000        -0.42000
C           1.57000        -0.00000         0.03000
C           3.99000        -0.48000         0.36000
S           2.50000        -1.30000         0.70000
H           4.94000        -0.92000         0.61000
C           0.10000        -0.03000        -0.00000
S          -0.77000        -1.47000        -0.52000
C          -2.29000        -0.67000        -0.28000
C          -2.11000         0.61000         0.16000
C          -0.74000         0.98000         0.33000
H          -0.40000         1.93000         0.70000
S          -3.63000         1.40000         0.41000
C          -4.49000        -0.03000        -0.10000
C          -3.66000        -1.05000        -0.43000
H          -5.56000        -0.03000        -0.12000
H          -4.01000        -2.01000        -0.77000
H           2.00000         1.89000        -0.90000
O           4.76000         1.55000        -0.58000
H           4.42000         2.32000        -1.00000

D 2 3 7 8 F

