%mem=100GB 
%nprocshared=16 
# mp2/aug-cc-pvdz 

 pgT2_TT_150.pdb

0  1
C           3.76000         0.75000        -0.14000
C           2.37000         1.05000        -0.31000
C           1.57000        -0.00000        -0.01000
C           3.99000        -0.52000         0.28000
S           2.50000        -1.38000         0.50000
H           4.94000        -0.98000         0.47000
C           0.10000        -0.03000        -0.04000
S          -0.78000        -1.51000        -0.39000
C          -2.29000        -0.69000        -0.20000
C          -2.11000         0.63000         0.11000
C          -0.73000         1.01000         0.21000
H          -0.39000         2.00000         0.49000
S          -3.63000         1.45000         0.30000
C          -4.49000        -0.03000        -0.04000
C          -3.67000        -1.08000        -0.29000
H          -5.56000        -0.03000        -0.04000
H          -4.02000        -2.07000        -0.52000
H           2.00000         1.99000        -0.67000
O           4.76000         1.63000        -0.38000
H           4.42000         2.44000        -0.70000

D 2 3 7 8 F

