%mem=100GB 
%nprocshared=16 
# mp2/aug-cc-pvdz 

 pgT2_TT_-130.pdb

0  1
C           3.76000         0.70000         0.24000
C           2.37000         0.97000         0.45000
C           1.57000         0.00000        -0.04000
C           3.99000        -0.47000        -0.39000
S           2.50000        -1.27000        -0.77000
H           4.94000        -0.90000        -0.66000
C           0.10000        -0.03000        -0.01000
S          -0.76000        -1.45000         0.57000
C          -2.29000        -0.66000         0.31000
C          -2.11000         0.60000        -0.18000
C          -0.74000         0.97000        -0.37000
H          -0.40000         1.91000        -0.77000
S          -3.64000         1.39000        -0.44000
C          -4.49000        -0.03000         0.12000
C          -3.66000        -1.04000         0.48000
H          -5.56000        -0.03000         0.15000
H          -4.00000        -1.99000         0.85000
H           2.00000         1.84000         0.97000
O           4.76000         1.52000         0.64000
H           4.42000         2.27000         1.09000

D 2 3 7 8 F

