%mem=100GB 
%nprocshared=16 
# mp2/aug-cc-pvdz 

 pgT2_TT_-85.pdb

0  1
C          -3.80000         0.04000         0.60000
C          -2.43000         0.25000         0.97000
C          -1.57000        -0.07000        -0.02000
C          -3.95000        -0.42000        -0.65000
S          -2.42000        -0.63000        -1.43000
H          -4.87000        -0.66000        -1.16000
C          -0.10000         0.01000         0.01000
S           0.72000         1.52000        -0.36000
C           2.27000         0.77000        -0.13000
C           2.13000        -0.54000         0.21000
C           0.77000        -0.99000         0.28000
H           0.46000        -1.99000         0.52000
S           3.68000        -1.29000         0.44000
C           4.48000         0.21000         0.08000
C           3.63000         1.22000        -0.20000
H           5.56000         0.26000         0.10000
H           3.94000         2.22000        -0.45000
H          -2.11000         0.62000         1.94000
O          -4.85000         0.29000         1.43000
H          -4.56000         0.65000         2.25000

D 2 3 7 8 F

