%mem=100GB 
%nprocshared=16 
# mp2/aug-cc-pvdz 

 pgT2_TT_50.pdb

0  1
C           3.82000         0.36000         0.34000
C           2.46000         0.79000         0.51000
C           1.56000        -0.09000        -0.01000
C           3.93000        -0.83000        -0.28000
S           2.36000        -1.46000        -0.70000
H           4.83000        -1.37000        -0.52000
C           0.10000         0.01000         0.01000
S          -0.69000         1.49000        -0.53000
C          -2.25000         0.80000        -0.23000
C          -2.14000        -0.48000         0.23000
C          -0.79000        -0.94000         0.36000
H          -0.50000        -1.92000         0.72000
S          -3.70000        -1.18000         0.53000
C          -4.48000         0.30000         0.02000
C          -3.60000         1.26000        -0.36000
H          -5.55000         0.36000         0.02000
H          -3.90000         2.23000        -0.70000
H           2.18000         1.71000         1.00000
O           4.89000         1.06000         0.77000
H           4.63000         1.88000         1.15000

D 2 3 7 8 F

