%mem=100GB 
%nprocshared=8 
# opt=modredundant hf/aug-cc-pvdz 

 pBTTT_130.pdb

0  1
C          -4.25000        -1.36000        -0.21000
C          -2.93000        -0.95000        -0.61000
C          -1.97000        -2.05000        -0.62000
C          -2.66000         0.47000        -0.96000
C          -4.33000        -2.76000         0.10000
H          -5.10000        -0.70000        -0.14000
S          -2.80000        -3.56000        -0.11000
H          -5.23000        -3.27000         0.41000
C          -0.56000        -2.13000        -0.97000
S           0.64400        -2.89500         0.11200
C           1.94800        -2.58800        -0.98300
C           1.50900        -1.93300        -2.18900
C           0.09800        -1.68600        -2.20100
H          -0.43400        -1.35700        -3.08000
S           2.55200        -2.24700        -3.53600
C           3.61100        -3.24300        -2.53500
C           3.13800        -3.34900        -1.17400
H           4.40400        -3.84600        -2.95400
H           3.48400        -4.12000        -0.49000
H          -3.55000         1.09000        -0.83000
H          -2.35000         0.56000        -2.00000
H          -1.88000         0.89000        -0.31000

D 2 3 9 10 F

