%mem=100GB 
%nprocshared=8 
# opt=modredundant hf/aug-cc-pvdz 

 pBTTT_-50.pdb

0  1
C          -4.25000        -1.36000        -0.21000
C          -2.93000        -0.95000        -0.61000
C          -1.97000        -2.05000        -0.62000
C          -2.66000         0.47000        -0.96000
C          -4.33000        -2.76000         0.10000
H          -5.10000        -0.70000        -0.14000
S          -2.80000        -3.56000        -0.11000
H          -5.23000        -3.27000         0.41000
C          -0.56000        -2.13000        -0.97000
S           0.07400        -1.46900        -2.50800
C           1.69700        -1.94300        -2.14000
C           1.80400        -2.57800        -0.85100
C           0.54400        -2.67400        -0.17600
H           0.45200        -2.96800         0.85800
S           3.38200        -2.41400        -0.15500
C           3.95100        -1.51000        -1.56000
C           2.91300        -1.31800        -2.54600
H           4.90800        -1.00600        -1.57600
H           2.98000        -0.57000        -3.33200
H          -3.55000         1.09000        -0.83000
H          -2.35000         0.56000        -2.00000
H          -1.88000         0.89000        -0.31000

D 2 3 9 10 F

