%mem=100GB 
%nprocshared=8 
# opt=modredundant hf/aug-cc-pvdz 

 pBTTT_75.pdb

0  1
C          -4.25000        -1.36000        -0.21000
C          -2.93000        -0.95000        -0.61000
C          -1.97000        -2.05000        -0.62000
C          -2.66000         0.47000        -0.96000
C          -4.33000        -2.76000         0.10000
H          -5.10000        -0.70000        -0.14000
S          -2.80000        -3.56000        -0.11000
H          -5.23000        -3.27000         0.41000
C          -0.56000        -2.13000        -0.97000
S           0.72200        -1.49500         0.10600
C           1.98400        -1.96600        -0.97900
C           1.47800        -2.63100        -2.15300
C           0.05000        -2.74400        -2.15100
H          -0.49200        -3.35000        -2.86000
S           2.63700        -3.70600        -2.86300
C           3.83200        -3.29400        -1.63200
C           3.32100        -2.34900        -0.66500
H           4.76000        -3.83700        -1.52100
H           3.79100        -2.18500         0.30100
H          -3.55000         1.09000        -0.83000
H          -2.35000         0.56000        -2.00000
H          -1.88000         0.89000        -0.31000

D 2 3 9 10 F

