%mem=100GB 
%nprocshared=8 
# opt=modredundant hf/aug-cc-pvdz 

 pBTTT_60.pdb

0  1
C          -4.25000        -1.36000        -0.21000
C          -2.93000        -0.95000        -0.61000
C          -1.97000        -2.05000        -0.62000
C          -2.66000         0.47000        -0.96000
C          -4.33000        -2.76000         0.10000
H          -5.10000        -0.70000        -0.14000
S          -2.80000        -3.56000        -0.11000
H          -5.23000        -3.27000         0.41000
C          -0.56000        -2.13000        -0.97000
S           0.68500        -1.16900        -0.11500
C           1.96800        -1.82000        -1.07600
C           1.49800        -2.78800        -2.03500
C           0.08100        -2.98300        -1.97300
H          -0.42600        -3.78000        -2.49600
S           2.71900        -3.93500        -2.47800
C           3.89400        -3.15500        -1.41600
C           3.32900        -2.03000        -0.70600
H           4.85500        -3.59600        -1.19400
H           3.79300        -1.60100         0.17800
H          -3.55000         1.09000        -0.83000
H          -2.35000         0.56000        -2.00000
H          -1.88000         0.89000        -0.31000

D 2 3 9 10 F

