%mem=10GB 
%nprocshared=8 
# opt=modredundant b3lyp/6-311+g(d,p) 

 pBTTT_-150.pdb

0  1
C          -4.25000        -1.36000        -0.21000
C          -2.93000        -0.95000        -0.61000
C          -1.97000        -2.05000        -0.62000
C          -2.66000         0.47000        -0.96000
C          -4.33000        -2.76000         0.10000
H          -5.10000        -0.70000        -0.14000
S          -2.80000        -3.56000        -0.11000
H          -5.23000        -3.27000         0.41000
C          -0.56000        -2.13000        -0.97000
S           0.16800        -3.62400        -1.63600
C           1.73600        -2.90300        -1.76200
C           1.74300        -1.52600        -1.33700
C           0.45400        -1.07500        -0.90500
H           0.23000        -0.03800        -0.70800
S           3.00600        -0.60400        -2.08200
C           3.57300        -2.02100        -2.96800
C           2.76700        -3.19100        -2.70400
H           4.31300        -1.95500        -3.75300
H           2.77900        -4.06900        -3.34500
H          -3.55000         1.09000        -0.83000
H          -2.35000         0.56000        -2.00000
H          -1.88000         0.89000        -0.31000

D 2 3 9 10 F

