%mem=10GB 
%nprocshared=8 
# opt=modredundant b3lyp/6-311+g(d,p) 

 pBTTT_-20.pdb

0  1
C          -4.25000        -1.36000        -0.21000
C          -2.93000        -0.95000        -0.61000
C          -1.97000        -2.05000        -0.62000
C          -2.66000         0.47000        -0.96000
C          -4.33000        -2.76000         0.10000
H          -5.10000        -0.70000        -0.14000
S          -2.80000        -3.56000        -0.11000
H          -5.23000        -3.27000         0.41000
C          -0.56000        -2.13000        -0.97000
S           0.23400        -0.89600        -1.99500
C           1.76800        -1.69000        -1.90900
C           1.72700        -2.87700        -1.09300
C           0.42700        -3.12500        -0.54500
H           0.24200        -3.86700         0.21600
S           3.27000        -3.27200        -0.41000
C           4.01900        -1.88300        -1.20100
C           3.06900        -1.10800        -1.96500
H           5.02600        -1.56000        -0.97300
H           3.26700        -0.08900        -2.28900
H          -3.55000         1.09000        -0.83000
H          -2.35000         0.56000        -2.00000
H          -1.88000         0.89000        -0.31000

D 2 3 9 10 F

